data_mofplus.org:HKUST-1_1x1x1
_symmetry_cell_setting           triclinic
_symmetry_space_group_name_H-M   'P 1'
_symmetry_Int_Tables_number      1
loop_
_symmetry_equiv_pos_site_id
_symmetry_equiv_pos_as_xyz
1 x,y,z
_cell_length_a             26.432700
_cell_length_b             26.432700
_cell_length_c             26.432700
_cell_angle_alpha          90.000000
_cell_angle_beta           90.000000
_cell_angle_gamma          90.000000
loop_
_atom_site_label
_atom_site_type_symbol
_atom_site_fract_x
_atom_site_fract_y
_atom_site_fract_z
 C0  C     0.322136      0.387039      0.322137
 C1  C     0.365736      0.365744      0.300749
 C2  C     0.387043      0.322142      0.322122
 C3  C     0.365751      0.300757      0.365725
 C4  C     0.322151      0.322132      0.387035
 C5  C     0.300767      0.365735      0.365742
 H6  H     0.382684      0.382703      0.266934
 H7  H     0.382711      0.266943      0.382673
 H8  H     0.266957      0.382687      0.382705
 Cu9  Cu     0.283625      0.000002      0.283608
 Cu10  Cu     0.216390      0.000002      0.216386
 O11  O     0.183061     -0.052419      0.256445
 C12  C     0.203122     -0.069117      0.296888
 O13  O     0.243571     -0.052423      0.316943
 O14  O     0.183066      0.052420      0.256450
 C15  C     0.203127      0.069120      0.296893
 O16  O     0.243576      0.052428      0.316947
 O17  O     0.256446     -0.052417      0.183049
 C18  C     0.296893     -0.069113      0.203105
 O19  O     0.316957     -0.052414      0.243546
 O20  O     0.256438      0.052423      0.183045
 C21  C     0.296887      0.069116      0.203100
 O22  O     0.316950      0.052417      0.243541
 C23  C     0.322127     -0.177854     -0.112953
 C24  C     0.365732     -0.199237     -0.134244
 C25  C     0.387039     -0.177864     -0.177845
 C26  C     0.365745     -0.134262     -0.199230
 C27  C     0.322141     -0.112957     -0.177860
 C28  C     0.300752     -0.134254     -0.134261
 H29  H     0.382682     -0.233050     -0.117283
 H30  H     0.382705     -0.117312     -0.233043
 H31  H     0.266934     -0.117298     -0.117316
 Cu32  Cu     0.216382      0.499998     -0.283614
 Cu33  Cu     0.283602      0.499999     -0.216380
 O34  O     0.243534     -0.447586     -0.183053
 C35  C     0.203094     -0.430885     -0.203116
 O36  O     0.183038     -0.447578     -0.243564
 O37  O     0.243542      0.447580     -0.183049
 C38  C     0.203100      0.430881     -0.203112
 O39  O     0.183044      0.447575     -0.243560
 O40  O     0.316943     -0.447573     -0.256427
 C41  C     0.296890     -0.430880     -0.296877
 O42  O     0.256448     -0.447580     -0.316939
 O43  O     0.316939      0.447573     -0.256433
 C44  C     0.296886      0.430877     -0.296882
 O45  O     0.256443      0.447575     -0.316944
 C46  C    -0.112955      0.322141     -0.177875
 C47  C    -0.134248      0.300756     -0.134273
 C48  C    -0.177847      0.322133     -0.112964
 C49  C    -0.199232      0.365735     -0.134258
 C50  C    -0.177861      0.387040     -0.177862
 C51  C    -0.134260      0.365744     -0.199247
 H52  H    -0.117291      0.266940     -0.117326
 H53  H    -0.233044      0.382686     -0.117296
 H54  H    -0.117310      0.382704     -0.233060
 Cu55  Cu    -0.216384      0.000003     -0.216387
 Cu56  Cu    -0.283609      0.000004     -0.283616
 O57  O    -0.243552      0.052424     -0.316950
 C58  C    -0.203108      0.069122     -0.296890
 O59  O    -0.183051      0.052426     -0.256444
 O60  O    -0.243549     -0.052413     -0.316953
 C61  C    -0.203107     -0.069114     -0.296892
 O62  O    -0.183050     -0.052420     -0.256445
 O63  O    -0.316940      0.052428     -0.243557
 C64  C    -0.296884      0.069124     -0.203110
 O65  O    -0.256440      0.052427     -0.183051
 O66  O    -0.316944     -0.052423     -0.243563
 C67  C    -0.296888     -0.069118     -0.203115
 O68  O    -0.256445     -0.052418     -0.183055
 C69  C    -0.177873     -0.177858      0.387046
 C70  C    -0.134268     -0.199239      0.365753
 C71  C    -0.112963     -0.177863      0.322152
 C72  C    -0.134260     -0.134262      0.300768
 C73  C    -0.177862     -0.112958      0.322142
 C74  C    -0.199249     -0.134257      0.365742
 H75  H    -0.117316     -0.233051      0.382713
 H76  H    -0.117302     -0.117311      0.266954
 H77  H    -0.233065     -0.117301      0.382690
 Cu78  Cu    -0.283619      0.499997      0.216390
 Cu79  Cu    -0.216387      0.499996      0.283614
 O80  O    -0.183059      0.447577      0.243552
 C81  C    -0.203119      0.430878      0.203108
 O82  O    -0.243567      0.447571      0.183052
 O83  O    -0.183054     -0.447584      0.243556
 C84  C    -0.203115     -0.430884      0.203114
 O85  O    -0.243563     -0.447578      0.183058
 O86  O    -0.256440      0.447574      0.316949
 C87  C    -0.296887      0.430881      0.296892
 O88  O    -0.316949      0.447579      0.256450
 O89  O    -0.256442     -0.447583      0.316950
 C90  C    -0.296889     -0.430888      0.296894
 O91  O    -0.316952     -0.447587      0.256452
 Cu92  Cu     0.283610      0.283616      0.000003
 Cu93  Cu     0.216382      0.216388      0.000003
 O94  O     0.183043      0.256439      0.052424
 C95  C     0.203102      0.296884      0.069120
 O96  O     0.243547      0.316942      0.052425
 O97  O     0.183048      0.256447     -0.052416
 C98  C     0.203108      0.296891     -0.069114
 O99  O     0.243554      0.316949     -0.052420
 O100  O     0.256444      0.183061      0.052424
 C101  C     0.296890      0.203119      0.069119
 O102  O     0.316949      0.243564      0.052424
 O103  O     0.256438      0.183055     -0.052419
 C104  C     0.296884      0.203112     -0.069114
 O105  O     0.316944      0.243556     -0.052416
 Cu106  Cu     0.000000      0.283606      0.283625
 Cu107  Cu    -0.000004      0.216384      0.216390
 O108  O    -0.052422      0.256449      0.183068
 C109  C    -0.069119      0.296892      0.203129
 O110  O    -0.052425      0.316947      0.243577
 O111  O     0.052415      0.256447      0.183059
 C112  C     0.069115      0.296888      0.203122
 O113  O     0.052424      0.316942      0.243572
 O114  O    -0.052424      0.183052      0.256449
 C115  C    -0.069117      0.203108      0.296897
 O116  O    -0.052417      0.243550      0.316960
 O117  O     0.052421      0.183038      0.256433
 C118  C     0.069115      0.203093      0.296880
 O119  O     0.052415      0.243535      0.316944
 Cu120  Cu    -0.216396      0.283618     -0.499999
 Cu121  Cu    -0.283624      0.216391     -0.499999
 O122  O    -0.316962      0.256447     -0.447581
 C123  C    -0.296901      0.296890     -0.430884
 O124  O    -0.256456      0.316949     -0.447580
 O125  O    -0.316960      0.256449      0.447583
 C126  C    -0.296898      0.296892      0.430885
 O127  O    -0.256453      0.316949      0.447581
 O128  O    -0.243565      0.183063     -0.447574
 C129  C    -0.203118      0.203120     -0.430880
 O130  O    -0.183060      0.243565     -0.447577
 O131  O    -0.243568      0.183059      0.447576
 C132  C    -0.203121      0.203115      0.430882
 O133  O    -0.183062      0.243560      0.447580
 Cu134  Cu    -0.499996     -0.283615      0.216382
 Cu135  Cu    -0.499997     -0.216385      0.283607
 O136  O    -0.447576     -0.183053      0.243549
 C137  C    -0.430877     -0.203114      0.203106
 O138  O    -0.447572     -0.243561      0.183049
 O139  O     0.447583     -0.183050      0.243547
 C140  C     0.430885     -0.203110      0.203104
 O141  O     0.447580     -0.243556      0.183047
 O142  O    -0.447572     -0.256440      0.316944
 C143  C    -0.430877     -0.296888      0.296888
 O144  O    -0.447574     -0.316947      0.256444
 O145  O     0.447580     -0.256443      0.316938
 C146  C     0.430884     -0.296890      0.296881
 O147  O     0.447583     -0.316950      0.256437
 Cu148  Cu    -0.216377     -0.216389     -0.000001
 Cu149  Cu    -0.283603     -0.283619     -0.000001
 O150  O    -0.243544     -0.316953     -0.052419
 C151  C    -0.203101     -0.296892     -0.069118
 O152  O    -0.183044     -0.256446     -0.052423
 O153  O    -0.243546     -0.316956      0.052416
 C154  C    -0.203103     -0.296895      0.069115
 O155  O    -0.183044     -0.256450      0.052419
 O156  O    -0.316935     -0.243563     -0.052425
 C157  C    -0.296880     -0.203115     -0.069120
 O158  O    -0.256436     -0.183055     -0.052423
 O159  O    -0.316932     -0.243560      0.052424
 C160  C    -0.296876     -0.203114      0.069120
 O161  O    -0.256431     -0.183054      0.052423
 Cu162  Cu     0.000003     -0.283610     -0.283619
 Cu163  Cu    -0.000001     -0.216376     -0.216398
 O164  O     0.052415     -0.183045     -0.256461
 C165  C     0.069117     -0.203109     -0.296901
 O166  O     0.052425     -0.243558     -0.316956
 O167  O    -0.052419     -0.183049     -0.256462
 C168  C    -0.069116     -0.203111     -0.296905
 O169  O    -0.052420     -0.243557     -0.316961
 O170  O     0.052427     -0.256420     -0.183052
 C171  C     0.069120     -0.296869     -0.203106
 O172  O     0.052421     -0.316931     -0.243548
 O173  O    -0.052425     -0.256436     -0.183067
 C174  C    -0.069119     -0.296884     -0.203122
 O175  O    -0.052420     -0.316945     -0.243565
 Cu176  Cu     0.283617     -0.216388      0.499997
 Cu177  Cu     0.216390     -0.283616      0.499997
 O178  O     0.256450     -0.316950      0.447577
 C179  C     0.296894     -0.296889      0.430878
 O180  O     0.316951     -0.256442      0.447573
 O181  O     0.256442     -0.316956     -0.447581
 C182  C     0.296886     -0.296896     -0.430884
 O183  O     0.316944     -0.256451     -0.447581
 O184  O     0.183058     -0.243561      0.447572
 C185  C     0.203114     -0.203114      0.430879
 O186  O     0.243558     -0.183054      0.447577
 O187  O     0.183062     -0.243552     -0.447582
 C188  C     0.203120     -0.203107     -0.430885
 O189  O     0.243564     -0.183048     -0.447582
 Cu190  Cu     0.499997      0.216385     -0.283609
 Cu191  Cu     0.499998      0.283611     -0.216378
 O192  O     0.447580      0.243555     -0.183041
 C193  C     0.430883      0.203111     -0.203102
 O194  O     0.447578      0.183053     -0.243548
 O195  O    -0.447586      0.243549     -0.183050
 C196  C    -0.430887      0.203107     -0.203112
 O197  O    -0.447581      0.183049     -0.243558
 O198  O     0.447575      0.316943     -0.256432
 C199  C     0.430880      0.296885     -0.296878
 O200  O     0.447576      0.256441     -0.316938
 O201  O    -0.447579      0.316945     -0.256434
 C202  C    -0.430886      0.296890     -0.296882
 O203  O    -0.447585      0.256446     -0.316942
 C204  C     0.322145      0.322136     -0.387038
 C205  C     0.300766      0.365738     -0.365738
 C206  C     0.322140      0.387038     -0.322133
 C207  C     0.365740      0.365738     -0.300752
 C208  C     0.387041      0.322136     -0.322130
 C209  C     0.365744      0.300756     -0.365733
 H210  H     0.266955      0.382694     -0.382697
 H211  H     0.382694      0.382693     -0.266938
 H212  H     0.382700      0.266941     -0.382686
 Cu213  Cu     0.283619      0.000002     -0.283612
 Cu214  Cu     0.216394      0.000002     -0.216382
 O215  O     0.256456     -0.052413     -0.183051
 C216  C     0.296899     -0.069113     -0.203111
 O217  O     0.316957     -0.052420     -0.243558
 O218  O     0.256451      0.052420     -0.183047
 C219  C     0.296894      0.069118     -0.203107
 O220  O     0.316953      0.052423     -0.243553
 O221  O     0.183057     -0.052424     -0.256434
 C222  C     0.203113     -0.069117     -0.296882
 O223  O     0.243557     -0.052418     -0.316942
 O224  O     0.183063      0.052427     -0.256439
 C225  C     0.203119      0.069122     -0.296886
 O226  O     0.243564      0.052425     -0.316945
 C227  C     0.387042     -0.177859      0.177855
 C228  C     0.365741     -0.134257      0.199235
 C229  C     0.322138     -0.112957      0.177858
 C230  C     0.300754     -0.134258      0.134259
 C231  C     0.322133     -0.177859      0.112958
 C232  C     0.365738     -0.199237      0.134253
 H233  H     0.382696     -0.117304      0.233049
 H234  H     0.266937     -0.117306      0.117309
 H235  H     0.382693     -0.233049      0.117296
 Cu236  Cu     0.216378      0.499998      0.283610
 Cu237  Cu     0.283607      0.499998      0.216384
 O238  O     0.316942     -0.447580      0.256440
 C239  C     0.296884     -0.430882      0.296884
 O240  O     0.256437     -0.447577      0.316942
 O241  O     0.316937      0.447578      0.256445
 C242  C     0.296878      0.430878      0.296889
 O243  O     0.256430      0.447570      0.316946
 O244  O     0.243549     -0.447583      0.183051
 C245  C     0.203103     -0.430886      0.203109
 O246  O     0.183042     -0.447584      0.243552
 O247  O     0.243555      0.447575      0.183048
 C248  C     0.203108      0.430882      0.203105
 O249  O     0.183047      0.447581      0.243548
 C250  C    -0.112957      0.322141      0.177874
 C251  C    -0.134262      0.365744      0.199246
 C252  C    -0.177862      0.387040      0.177860
 C253  C    -0.199233      0.365736      0.134256
 C254  C    -0.177849      0.322134      0.112961
 C255  C    -0.134250      0.300757      0.134271
 H256  H    -0.117311      0.382704      0.233059
 H257  H    -0.233045      0.382688      0.117295
 H258  H    -0.117293      0.266941      0.117323
 Cu259  Cu    -0.216382      0.000002      0.216387
 Cu260  Cu    -0.283608      0.000003      0.283616
 O261  O    -0.243548     -0.052413      0.316952
 C262  C    -0.203106     -0.069114      0.296891
 O263  O    -0.183048     -0.052421      0.256444
 O264  O    -0.243552      0.052421      0.316950
 C265  C    -0.203109      0.069119      0.296891
 O266  O    -0.183049      0.052424      0.256445
 O267  O    -0.316942     -0.052424      0.243563
 C268  C    -0.296885     -0.069118      0.203115
 O269  O    -0.256442     -0.052418      0.183055
 O270  O    -0.316938      0.052426      0.243557
 C271  C    -0.296881      0.069121      0.203110
 O272  O    -0.256436      0.052425      0.183051
 C273  C    -0.177870     -0.177861     -0.387045
 C274  C    -0.134265     -0.199239     -0.365752
 C275  C    -0.112960     -0.177862     -0.322152
 C276  C    -0.134259     -0.134261     -0.300768
 C277  C    -0.177862     -0.112959     -0.322142
 C278  C    -0.199247     -0.134259     -0.365741
 H279  H    -0.117311     -0.233051     -0.382711
 H280  H    -0.117302     -0.117310     -0.266954
 H281  H    -0.233064     -0.117306     -0.382691
 Cu282  Cu    -0.283620      0.499998     -0.216389
 Cu283  Cu    -0.216390      0.499998     -0.283614
 O284  O    -0.183055     -0.447581     -0.243558
 C285  C    -0.203115     -0.430882     -0.203115
 O286  O    -0.243562     -0.447576     -0.183058
 O287  O    -0.183060      0.447578     -0.243554
 C288  C    -0.203119      0.430878     -0.203110
 O289  O    -0.243567      0.447571     -0.183053
 O290  O    -0.256447     -0.447582     -0.316950
 C291  C    -0.296894     -0.430886     -0.296893
 O292  O    -0.316955     -0.447585     -0.256450
 O293  O    -0.256444      0.447574     -0.316948
 C294  C    -0.296891      0.430881     -0.296891
 O295  O    -0.316952      0.447580     -0.256449
 Cu296  Cu    -0.000000      0.216383     -0.216392
 Cu297  Cu     0.000004      0.283609     -0.283622
 O298  O     0.052422      0.243548     -0.316950
 C299  C     0.069117      0.203104     -0.296889
 O300  O     0.052421      0.183046     -0.256444
 O301  O    -0.052413      0.243552     -0.316960
 C302  C    -0.069113      0.203110     -0.296897
 O303  O    -0.052420      0.183053     -0.256450
 O304  O     0.052425      0.316935     -0.243560
 C305  C     0.069118      0.296878     -0.203112
 O306  O     0.052421      0.256434     -0.183053
 O307  O    -0.052421      0.316949     -0.243576
 C308  C    -0.069115      0.296893     -0.203129
 O309  O    -0.052418      0.256449     -0.183068
 Cu310  Cu     0.499998     -0.283615     -0.216384
 Cu311  Cu     0.499997     -0.216381     -0.283605
 O312  O     0.447580     -0.183056     -0.243536
 C313  C     0.430880     -0.203118     -0.203094
 O314  O     0.447573     -0.243567     -0.183040
 O315  O    -0.447583     -0.183050     -0.243547
 C316  C    -0.430883     -0.203113     -0.203105
 O317  O    -0.447578     -0.243560     -0.183049
 O318  O     0.447571     -0.256429     -0.316945
 C319  C     0.430879     -0.296878     -0.296890
 O320  O     0.447580     -0.316941     -0.256449
 O321  O    -0.447578     -0.256437     -0.316944
 C322  C    -0.430883     -0.296885     -0.296889
 O323  O    -0.447581     -0.316946     -0.256446
 Cu324  Cu    -0.000004     -0.216380      0.216396
 Cu325  Cu    -0.000000     -0.283610      0.283621
 O326  O    -0.052423     -0.316946      0.243566
 C327  C    -0.069122     -0.296886      0.203122
 O328  O    -0.052429     -0.256438      0.183066
 O329  O     0.052421     -0.316940      0.243559
 C330  C     0.069118     -0.296881      0.203114
 O331  O     0.052422     -0.256434      0.183058
 O332  O    -0.052424     -0.243559      0.316962
 C333  C    -0.069120     -0.203113      0.296905
 O334  O    -0.052422     -0.183052      0.256461
 O335  O     0.052421     -0.243547      0.316949
 C336  C     0.069116     -0.203101      0.296891
 O337  O     0.052416     -0.183040      0.256449
 Cu338  Cu    -0.499997      0.283608      0.216376
 Cu339  Cu    -0.499998      0.216386      0.283610
 O340  O    -0.447579      0.256446      0.316942
 C341  C    -0.430880      0.296889      0.296881
 O342  O    -0.447573      0.316944      0.256432
 O343  O     0.447584      0.256454      0.316932
 C344  C     0.430884      0.296895      0.296869
 O345  O     0.447577      0.316950      0.256420
 O346  O    -0.447576      0.183048      0.243560
 C347  C    -0.430881      0.203105      0.203113
 O348  O    -0.447580      0.243546      0.183050
 O349  O     0.447578      0.183045      0.243559
 C350  C     0.430886      0.203100      0.203110
 O351  O     0.447587      0.243541      0.183047
 C352  C    -0.387042      0.322141      0.322135
 C353  C    -0.365740      0.365742      0.300758
 C354  C    -0.322138      0.387040      0.322140
 C355  C    -0.300761      0.365739      0.365742
 C356  C    -0.322144      0.322140      0.387042
 C357  C    -0.365745      0.300762      0.365739
 H358  H    -0.382692      0.382698      0.266944
 H359  H    -0.266945      0.382691      0.382697
 H360  H    -0.382702      0.266948      0.382693
 C361  C    -0.322138     -0.112960     -0.177863
 C362  C    -0.365741     -0.134262     -0.199240
 C363  C    -0.387039     -0.177864     -0.177858
 C364  C    -0.365736     -0.199243     -0.134258
 C365  C    -0.322134     -0.177863     -0.112960
 C366  C    -0.300758     -0.134260     -0.134261
 H367  H    -0.382698     -0.117308     -0.233053
 H368  H    -0.382689     -0.233058     -0.117303
 H369  H    -0.266946     -0.117303     -0.117306
 C370  C     0.112956      0.322131     -0.177860
 C371  C     0.134257      0.300755     -0.134257
 C372  C     0.177857      0.322138     -0.112957
 C373  C     0.199233      0.365740     -0.134259
 C374  C     0.177852      0.387038     -0.177862
 C375  C     0.134253      0.365734     -0.199240
 H376  H     0.117305      0.266941     -0.117301
 H377  H     0.233047      0.382697     -0.117306
 H378  H     0.117297      0.382686     -0.233055
 C379  C     0.177865     -0.177861      0.387039
 C380  C     0.134262     -0.199237      0.365738
 C381  C     0.112961     -0.177854      0.322138
 C382  C     0.134265     -0.134253      0.300760
 C383  C     0.177869     -0.112956      0.322139
 C384  C     0.199246     -0.134259      0.365741
 H385  H     0.117306     -0.233052      0.382690
 H386  H     0.117312     -0.117297      0.266946
 H387  H     0.233060     -0.117306      0.382697
 Cu388  Cu    -0.216381      0.216385     -0.000001
 Cu389  Cu    -0.283598      0.283623     -0.000001
 O390  O    -0.243532      0.316949      0.052415
 C391  C    -0.203092      0.296884      0.069116
 O392  O    -0.183037      0.256436      0.052423
 O393  O    -0.243530      0.316948     -0.052416
 C394  C    -0.203090      0.296883     -0.069118
 O395  O    -0.183037      0.256434     -0.052426
 O396  O    -0.316939      0.243573      0.052427
 C397  C    -0.296886      0.203123      0.069120
 O398  O    -0.256445      0.183060      0.052420
 O399  O    -0.316941      0.243577     -0.052428
 C400  C    -0.296890      0.203127     -0.069122
 O401  O    -0.256449      0.183063     -0.052422
 Cu402  Cu     0.283613      0.216384      0.499997
 Cu403  Cu     0.216394      0.283619      0.499997
 O404  O     0.256456      0.316950     -0.447583
 C405  C     0.296897      0.296886     -0.430883
 O406  O     0.316952      0.256438     -0.447578
 O407  O     0.256464      0.316942      0.447578
 C408  C     0.296904      0.296879      0.430877
 O409  O     0.316957      0.256429      0.447569
 O410  O     0.183055      0.243565     -0.447578
 C411  C     0.203109      0.203117     -0.430883
 O412  O     0.243551      0.183054     -0.447583
 O413  O     0.183050      0.243573      0.447569
 C414  C     0.203104      0.203124      0.430877
 O415  O     0.243544      0.183060      0.447579
 Cu416  Cu     0.283614     -0.283612      0.000003
 Cu417  Cu     0.216378     -0.216392      0.000004
 O418  O     0.183054     -0.256460     -0.052412
 C419  C     0.203117     -0.296900     -0.069114
 O420  O     0.243567     -0.316955     -0.052422
 O421  O     0.183049     -0.256452      0.052421
 C422  C     0.203112     -0.296894      0.069119
 O423  O     0.243561     -0.316948      0.052426
 O424  O     0.256424     -0.183048     -0.052421
 C425  C     0.296873     -0.203102     -0.069113
 O426  O     0.316937     -0.243543     -0.052413
 O427  O     0.256431     -0.183055      0.052426
 C428  C     0.296880     -0.203110      0.069119
 O429  O     0.316943     -0.243552      0.052421
 Cu430  Cu    -0.216394     -0.283616     -0.499999
 Cu431  Cu    -0.283626     -0.216392     -0.499999
 O432  O    -0.316956     -0.256453     -0.447582
 C433  C    -0.296894     -0.296896     -0.430886
 O434  O    -0.256448     -0.316954     -0.447581
 O435  O    -0.243573     -0.183057     -0.447576
 C436  C    -0.203125     -0.203113     -0.430882
 O437  O    -0.183066     -0.243557     -0.447578
 O438  O    -0.316955     -0.256456      0.447585
 C439  C    -0.296892     -0.296898      0.430888
 O440  O    -0.256445     -0.316955      0.447582
 O441  O    -0.243577     -0.183054      0.447576
 C442  C    -0.203129     -0.203110      0.430883
 O443  O    -0.183068     -0.243554      0.447581
 C444  C    -0.387047      0.322140     -0.322135
 C445  C    -0.365749      0.300760     -0.365738
 C446  C    -0.322148      0.322138     -0.387040
 C447  C    -0.300765      0.365738     -0.365741
 C448  C    -0.322142      0.387040     -0.322139
 C449  C    -0.365745      0.365742     -0.300758
 H450  H    -0.382705      0.266947     -0.382691
 H451  H    -0.266949      0.382690     -0.382695
 H452  H    -0.382697      0.382699     -0.266944
 C453  C    -0.322135     -0.112959      0.177863
 C454  C    -0.365736     -0.134262      0.199240
 C455  C    -0.387035     -0.177864      0.177858
 C456  C    -0.365732     -0.199242      0.134257
 C457  C    -0.322129     -0.177862      0.112959
 C458  C    -0.300754     -0.134258      0.134261
 H459  H    -0.382693     -0.117309      0.233054
 H460  H    -0.382685     -0.233056      0.117301
 H461  H    -0.266941     -0.117301      0.117307
 C462  C     0.112955      0.322137      0.177869
 C463  C     0.134259      0.365739      0.199245
 C464  C     0.177858      0.387039      0.177860
 C465  C     0.199233      0.365737      0.134257
 C466  C     0.177852      0.322135      0.112961
 C467  C     0.134251      0.300757      0.134265
 H468  H     0.117309      0.382695      0.233061
 H469  H     0.233046      0.382691      0.117298
 H470  H     0.117294      0.266943      0.117313
 C471  C     0.112962     -0.177860     -0.322146
 C472  C     0.134267     -0.199239     -0.365746
 C473  C     0.177869     -0.177858     -0.387043
 C474  C     0.199246     -0.134256     -0.365738
 C475  C     0.177863     -0.112957     -0.322137
 C476  C     0.134259     -0.134259     -0.300763
 H477  H     0.117316     -0.233054     -0.382702
 H478  H     0.233060     -0.117299     -0.382690
 H479  H     0.117300     -0.117306     -0.266951
 C480  C     0.387041     -0.322139      0.322130
 C481  C     0.365738     -0.365741      0.300752
 C482  C     0.322138     -0.387042      0.322134
 C483  C     0.300764     -0.365743      0.365739
 C484  C     0.322144     -0.322140      0.387037
 C485  C     0.365744     -0.300760      0.365733
 H486  H     0.382690     -0.382694      0.266936
 H487  H     0.266954     -0.382699      0.382699
 H488  H     0.382699     -0.266946      0.382686
 C489  C    -0.112958     -0.322137     -0.177870
 C490  C    -0.134260     -0.365740     -0.199247
 C491  C    -0.177861     -0.387041     -0.177866
 C492  C    -0.199236     -0.365741     -0.134262
 C493  C    -0.177855     -0.322140     -0.112963
 C494  C    -0.134256     -0.300759     -0.134266
 H495  H    -0.117307     -0.382695     -0.233061
 H496  H    -0.233049     -0.382695     -0.117305
 H497  H    -0.117301     -0.266944     -0.117313
 C498  C     0.322135      0.177862     -0.112955
 C499  C     0.365738      0.199241     -0.134252
 C500  C     0.387041      0.177862     -0.177853
 C501  C     0.365743      0.134260     -0.199233
 C502  C     0.322140      0.112960     -0.177857
 C503  C     0.300757      0.134261     -0.134257
 H504  H     0.382691      0.233056     -0.117297
 H505  H     0.382700      0.117306     -0.233046
 H506  H     0.266940      0.117308     -0.117307
 C507  C    -0.177867      0.177863      0.387043
 C508  C    -0.134262      0.199240      0.365746
 C509  C    -0.112960      0.177861      0.322146
 C510  C    -0.134259      0.134260      0.300764
 C511  C    -0.177862      0.112960      0.322141
 C512  C    -0.199245      0.134261      0.365741
 H513  H    -0.117308      0.233053      0.382702
 H514  H    -0.117303      0.117306      0.266951
 H515  H    -0.233060      0.117307      0.382693
 C516  C     0.387038     -0.322131     -0.322138
 C517  C     0.365736     -0.300757     -0.365742
 C518  C     0.322137     -0.322143     -0.387041
 C519  C     0.300762     -0.365745     -0.365736
 C520  C     0.322142     -0.387040     -0.322131
 C521  C     0.365742     -0.365733     -0.300755
 H522  H     0.382686     -0.266943     -0.382699
 H523  H     0.266951     -0.382706     -0.382690
 H524  H     0.382700     -0.382683     -0.266940
 C525  C    -0.112961     -0.322140      0.177869
 C526  C    -0.134262     -0.365743      0.199245
 C527  C    -0.177863     -0.387044      0.177864
 C528  C    -0.199239     -0.365744      0.134260
 C529  C    -0.177857     -0.322143      0.112960
 C530  C    -0.134258     -0.300762      0.134265
 H531  H    -0.117309     -0.382698      0.233059
 H532  H    -0.233051     -0.382699      0.117304
 H533  H    -0.117304     -0.266948      0.117311
 C534  C     0.322136      0.112957      0.177853
 C535  C     0.300758      0.134264      0.134254
 C536  C     0.322140      0.177866      0.112958
 C537  C     0.365744      0.199239      0.134260
 C538  C     0.387043      0.177854      0.177860
 C539  C     0.365740      0.134252      0.199234
 H540  H     0.266942      0.117314      0.117298
 H541  H     0.382701      0.233053      0.117310
 H542  H     0.382691      0.117293      0.233047
 C543  C    -0.177864      0.177867     -0.387042
 C544  C    -0.134259      0.199244     -0.365745
 C545  C    -0.112957      0.177863     -0.322145
 C546  C    -0.134257      0.134263     -0.300763
 C547  C    -0.177860      0.112963     -0.322141
 C548  C    -0.199242      0.134265     -0.365741
 H549  H    -0.117305      0.233058     -0.382699
 H550  H    -0.117302      0.117309     -0.266950
 H551  H    -0.233056      0.117311     -0.382694
 C552  C    -0.322141     -0.387043     -0.322140
 C553  C    -0.300761     -0.365743     -0.365741
 C554  C    -0.322142     -0.322143     -0.387043
 C555  C    -0.365743     -0.300762     -0.365744
 C556  C    -0.387044     -0.322138     -0.322141
 C557  C    -0.365743     -0.365740     -0.300762
 H558  H    -0.266945     -0.382696     -0.382693
 H559  H    -0.382697     -0.266949     -0.382701
 H560  H    -0.382697     -0.382693     -0.266947
 C561  C    -0.322134      0.112961      0.177859
 C562  C    -0.365736      0.134258      0.199241
 C563  C    -0.387038      0.177859      0.177864
 C564  C    -0.365739      0.199244      0.134264
 C565  C    -0.322138      0.177869      0.112960
 C566  C    -0.300758      0.134265      0.134256
 H567  H    -0.382690      0.117300      0.233053
 H568  H    -0.382696      0.233060      0.117314
 H569  H    -0.266947      0.117310      0.117298
 C570  C     0.177860     -0.322143      0.112959
 C571  C     0.199238     -0.365744      0.134261
 C572  C     0.177857     -0.387041      0.177862
 C573  C     0.134258     -0.365737      0.199243
 C574  C     0.112957     -0.322135      0.177862
 C575  C     0.134258     -0.300761      0.134257
 H576  H     0.233052     -0.382699      0.117308
 H577  H     0.117305     -0.382687      0.233059
 H578  H     0.117303     -0.266950      0.117298
 C579  C     0.177861      0.177866     -0.387040
 C580  C     0.134259      0.199242     -0.365738
 C581  C     0.112960      0.177857     -0.322138
 C582  C     0.134261      0.134255     -0.300760
 C583  C     0.177865      0.112960     -0.322139
 C584  C     0.199242      0.134263     -0.365741
 H585  H     0.117304      0.233057     -0.382688
 H586  H     0.117305      0.117297     -0.266949
 H587  H     0.233056      0.117311     -0.382696
 C588  C    -0.387039     -0.322142      0.322142
 C589  C    -0.365738     -0.365743      0.300763
 C590  C    -0.322136     -0.387045      0.322142
 C591  C    -0.300756     -0.365745      0.365743
 C592  C    -0.322138     -0.322146      0.387045
 C593  C    -0.365740     -0.300766      0.365746
 H594  H    -0.382691     -0.382697      0.266948
 H595  H    -0.266939     -0.382696      0.382694
 H596  H    -0.382695     -0.266954      0.382703
 C597  C    -0.322138      0.112963     -0.177859
 C598  C    -0.365741      0.134260     -0.199240
 C599  C    -0.387043      0.177862     -0.177864
 C600  C    -0.365744      0.199248     -0.134264
 C601  C    -0.322142      0.177872     -0.112960
 C602  C    -0.300763      0.134268     -0.134256
 H603  H    -0.382694      0.117303     -0.233053
 H604  H    -0.382700      0.233064     -0.117315
 H605  H    -0.266952      0.117313     -0.117297
 C606  C     0.177865     -0.322144     -0.112956
 C607  C     0.134263     -0.300757     -0.134250
 C608  C     0.112958     -0.322126     -0.177855
 C609  C     0.134252     -0.365729     -0.199240
 C610  C     0.177851     -0.387039     -0.177866
 C611  C     0.199238     -0.365745     -0.134264
 H612  H     0.117313     -0.266945     -0.117288
 H613  H     0.117293     -0.382676     -0.233055
 H614  H     0.233053     -0.382705     -0.117317
 C615  C     0.177870      0.112958      0.322141
 C616  C     0.199243      0.134266      0.365743
 C617  C     0.177857      0.177868      0.387037
 C618  C     0.134254      0.199239      0.365730
 C619  C     0.112959      0.177850      0.322130
 C620  C     0.134266      0.134249      0.300757
 H621  H     0.233056      0.117317      0.382704
 H622  H     0.117294      0.233053      0.382677
 H623  H     0.117316      0.117287      0.266945
