
#======================================================================
# CRYSTAL DATA
#----------------------------------------------------------------------
data_VESTA_phase_1

_chemical_name_common                  'crystal'
_cell_length_a                         13.480700
_cell_length_b                         13.480700
_cell_length_c                         13.480700
_cell_angle_alpha                      86.553001
_cell_angle_beta                       86.553001
_cell_angle_gamma                      86.553001
_cell_volume                           2437.052289
_space_group_name_H-M_alt              'P 1'
_space_group_IT_number                 1

loop_
_space_group_symop_operation_xyz
   'x, y, z'

loop_
   _atom_site_label
   _atom_site_occupancy
   _atom_site_fract_x
   _atom_site_fract_y
   _atom_site_fract_z
   _atom_site_adp_type
   _atom_site_U_iso_or_equiv
   _atom_site_type_symbol
   Cu         1.0     0.039500     0.611460     0.611460    Uiso  ? Cu
   Cu         1.0     0.039500     0.039500     0.183420    Uiso  ? Cu
   Cu         1.0     0.611460     0.039500     0.611460    Uiso  ? Cu
   Cu         1.0     0.428040     0.000000     0.571960    Uiso  ? Cu
   Cu         1.0     0.000000     0.000000     0.000000    Uiso  ? Cu
   Cu         1.0     0.000000     0.428040     0.571960    Uiso  ? Cu
   H          1.0     0.019650     0.461250     0.251510    Uiso  ? H
   H          1.0     0.679550     0.019650     0.033210    Uiso  ? H
   H          1.0     0.461250     0.679550     0.591610    Uiso  ? H
   H          1.0     0.578250     0.019850     0.931910    Uiso  ? H
   H          1.0     0.019850     0.359950     0.150210    Uiso  ? H
   H          1.0     0.359950     0.578250     0.591810    Uiso  ? H
   H          1.0     0.019850     0.578250     0.931910    Uiso  ? H
   H          1.0     0.359950     0.019850     0.150210    Uiso  ? H
   H          1.0     0.578250     0.359950     0.591810    Uiso  ? H
   H          1.0     0.461250     0.019650     0.251510    Uiso  ? H
   H          1.0     0.019650     0.679550     0.033210    Uiso  ? H
   H          1.0     0.679550     0.461250     0.591610    Uiso  ? H
   H          1.0     0.035550     0.747550     0.319510    Uiso  ? H
   H          1.0     0.747550     0.035550     0.319510    Uiso  ? H
   H          1.0     0.747550     0.747550     0.607510    Uiso  ? H
   H          1.0     0.291950     0.003950     0.863910    Uiso  ? H
   H          1.0     0.003950     0.291950     0.863910    Uiso  ? H
   H          1.0     0.291950     0.291950     0.575910    Uiso  ? H
   C          1.0     0.027090     0.568100     0.409260    Uiso  ? C
   C          1.0     0.021970     0.529710     0.230770    Uiso  ? C
   C          1.0     0.026920     0.599440     0.301260    Uiso  ? C
   C          1.0     0.837300     0.027090     0.140060    Uiso  ? C
   C          1.0     0.658810     0.021970     0.101670    Uiso  ? C
   C          1.0     0.729300     0.026920     0.171400    Uiso  ? C
   C          1.0     0.568100     0.837300     0.599050    Uiso  ? C
   C          1.0     0.529710     0.658810     0.593930    Uiso  ? C
   C          1.0     0.599440     0.729300     0.598880    Uiso  ? C
   C          1.0     0.471400     0.012410     0.774160    Uiso  ? C
   C          1.0     0.509790     0.017530     0.952650    Uiso  ? C
   C          1.0     0.440060     0.012580     0.882160    Uiso  ? C
   C          1.0     0.012410     0.202200     0.043360    Uiso  ? C
   C          1.0     0.017530     0.380690     0.081750    Uiso  ? C
   C          1.0     0.012580     0.310200     0.012020    Uiso  ? C
   C          1.0     0.202200     0.471400     0.584370    Uiso  ? C
   C          1.0     0.380690     0.509790     0.589490    Uiso  ? C
   C          1.0     0.310200     0.440060     0.584540    Uiso  ? C
   C          1.0     0.012410     0.471400     0.774160    Uiso  ? C
   C          1.0     0.017530     0.509790     0.952650    Uiso  ? C
   C          1.0     0.012580     0.440060     0.882160    Uiso  ? C
   C          1.0     0.202200     0.012410     0.043360    Uiso  ? C
   C          1.0     0.380690     0.017530     0.081750    Uiso  ? C
   C          1.0     0.310200     0.012580     0.012020    Uiso  ? C
   C          1.0     0.471400     0.202200     0.584370    Uiso  ? C
   C          1.0     0.509790     0.380690     0.589490    Uiso  ? C
   C          1.0     0.440060     0.310200     0.584540    Uiso  ? C
   C          1.0     0.568100     0.027090     0.409260    Uiso  ? C
   C          1.0     0.529710     0.021970     0.230770    Uiso  ? C
   C          1.0     0.599440     0.026920     0.301260    Uiso  ? C
   C          1.0     0.027090     0.837300     0.140060    Uiso  ? C
   C          1.0     0.021970     0.658810     0.101670    Uiso  ? C
   C          1.0     0.026920     0.729300     0.171400    Uiso  ? C
   C          1.0     0.837300     0.568100     0.599050    Uiso  ? C
   C          1.0     0.658810     0.529710     0.593930    Uiso  ? C
   C          1.0     0.729300     0.599440     0.598880    Uiso  ? C
   C          1.0     0.020310     0.558310     0.130270    Uiso  ? C
   C          1.0     0.030630     0.699580     0.271540    Uiso  ? C
   C          1.0     0.558310     0.020310     0.130270    Uiso  ? C
   C          1.0     0.699580     0.030630     0.271540    Uiso  ? C
   C          1.0     0.558310     0.558310     0.592270    Uiso  ? C
   C          1.0     0.699580     0.699580     0.602590    Uiso  ? C
   C          1.0     0.481190     0.019190     0.053150    Uiso  ? C
   C          1.0     0.339920     0.008870     0.911880    Uiso  ? C
   C          1.0     0.019190     0.481190     0.053150    Uiso  ? C
   C          1.0     0.008870     0.339920     0.911880    Uiso  ? C
   C          1.0     0.481190     0.481190     0.591150    Uiso  ? C
   C          1.0     0.339920     0.339920     0.580830    Uiso  ? C
   O          1.0     0.042770     0.633770     0.467500    Uiso  ? O
   O          1.0     0.009850     0.479100     0.433210    Uiso  ? O
   O          1.0     0.895540     0.042770     0.205730    Uiso  ? O
   O          1.0     0.861250     0.009850     0.051060    Uiso  ? O
   O          1.0     0.633770     0.895540     0.614730    Uiso  ? O
   O          1.0     0.479100     0.861250     0.581810    Uiso  ? O
   O          1.0     0.405730     0.996730     0.715920    Uiso  ? O
   O          1.0     0.560400     0.029650     0.750210    Uiso  ? O
   O          1.0     0.996730     0.143960     0.977690    Uiso  ? O
   O          1.0     0.029650     0.178250     0.132360    Uiso  ? O
   O          1.0     0.143960     0.405730     0.568690    Uiso  ? O
   O          1.0     0.178250     0.560400     0.601610    Uiso  ? O
   O          1.0     0.996730     0.405730     0.715920    Uiso  ? O
   O          1.0     0.029650     0.560400     0.750210    Uiso  ? O
   O          1.0     0.143960     0.996730     0.977690    Uiso  ? O
   O          1.0     0.178250     0.029650     0.132360    Uiso  ? O
   O          1.0     0.405730     0.143960     0.568690    Uiso  ? O
   O          1.0     0.560400     0.178250     0.601610    Uiso  ? O
   O          1.0     0.633770     0.042770     0.467500    Uiso  ? O
   O          1.0     0.479100     0.009850     0.433210    Uiso  ? O
   O          1.0     0.042770     0.895540     0.205730    Uiso  ? O
   O          1.0     0.009850     0.861250     0.051060    Uiso  ? O
   O          1.0     0.895540     0.633770     0.614730    Uiso  ? O
   O          1.0     0.861250     0.479100     0.581810    Uiso  ? O
