data_block_1
_audit_creation_date         'Thu Sep 26 19:53:26 2019'
_audit_creation_method       'generated by GDIS v0.91'


_cell_length_a              8.6030
_cell_length_b             21.5240
_cell_length_c             22.0810
_cell_angle_alpha          87.56
_cell_angle_beta           91.36
_cell_angle_gamma          91.37


_symmetry_space_group_name_H-M   'P 1'
_symmetry_Int_Tables_number       1


loop_
_atom_site_label
_atom_site_fract_x
_atom_site_fract_y
_atom_site_fract_z
 H    0.0379    0.3783    0.2955
 O    0.0555    0.2755    0.2498
Cl    0.2378    0.7761    0.6431
 O    0.9527    0.7845    0.8364
Ru    0.1764    0.1978    0.2410
Ru    0.6304    0.1824    0.2615
 O    0.4685    0.1188    0.2966
 C    0.2544    0.9842    0.2443
 H    0.1539    0.0062    0.2233
 C    0.3718    0.0206    0.2704
 C    0.4991    0.9922    0.2992
 H    0.5895    0.0210    0.3191
 C    0.3714    0.0891    0.2654
 O    0.2733    0.1150    0.2284
 O    0.8272    0.2309    0.2309
 O    0.5321    0.2586    0.2946
 O    0.5385    0.2033    0.1770
Zn    0.5201    0.6702    0.2634
 C    0.6450    0.5200    0.2586
 C    0.5341    0.6853    0.1080
 N    0.4693    0.7276    0.3303
 C    0.5187    0.6565    0.4186
 N    0.5723    0.6130    0.1963
 N    0.4767    0.7400    0.2004
 N    0.5695    0.6012    0.3263
 C    0.6922    0.3512    0.2240
 H    0.6287    0.3145    0.2018
 C    0.6279    0.4091    0.2280
 H    0.5128    0.4176    0.2090
 C    0.7099    0.4568    0.2563
 C    0.8578    0.4451    0.2809
 H    0.9228    0.4821    0.3024
 C    0.9225    0.3872    0.2771
 C    0.8395    0.3398    0.2487
 C    0.4458    0.8004    0.2119
 C    0.5378    0.6558    0.4859
 C    0.4208    0.8236    0.2690
 C    0.4734    0.7131    0.3912
 C    0.5420    0.6928    0.0410
 C    0.4090    0.7082    0.0066
 H    0.3000    0.7127    0.0293
 C    0.6815    0.6862    0.0111
 H    0.7855    0.6747    0.0374
 C    0.6178    0.5427    0.3156
 C    0.4297    0.7661    0.4239
 H    0.4217    0.7675    0.4724
 C    0.4479    0.8376    0.1563
 H    0.4315    0.8871    0.1523
 C    0.5694    0.6275    0.1353
 C    0.6143    0.5745    0.1029
 H    0.6196    0.5724    0.0544
 C    0.2669    0.9201    0.2452
 H    0.1762    0.8918    0.2246
 C    0.5112    0.9283    0.2998
 H    0.6121    0.9064    0.3206
 C    0.3970    0.8916    0.2719
 C    0.4012    0.8126    0.3821
 H    0.3646    0.8590    0.3901
 C    0.6027    0.5461    0.4168
 H    0.6041    0.5360    0.4651
 C    0.4289    0.7886    0.3236
 C    0.6214    0.5530    0.2034
 C    0.4958    0.7379    0.1392
 C    0.5748    0.6763    0.6092
 C    0.6367    0.5077    0.3722
 H    0.6699    0.4597    0.3769
 C    0.5608    0.6046    0.3879
 C    0.4780    0.7990    0.1114
 H    0.4904    0.8111    0.0639
 C    0.6492    0.5290    0.1449
 H    0.6904    0.4833    0.1369
 C    0.7015    0.6834    0.5711
 H    0.8121    0.6997    0.5894
 C    0.6828    0.6732    0.5100
 H    0.7793    0.6813    0.4799
 C    0.4324    0.6548    0.5861
 H    0.3352    0.6494    0.6161
 C    0.4143    0.6445    0.5248
 H    0.3018    0.6303    0.5064
Cl    0.2285    0.8545    0.7781
 O    0.4698    0.6939    0.7047
 O    0.7190    0.7219    0.6862
 C    0.5879    0.6986    0.6718
 C    0.9080    0.2782    0.2432
Ru    0.8215    0.7526    0.7622
 O    0.9546    0.8037    0.7030
Ru    0.3591    0.7687    0.7395
 O    0.9436    0.6727    0.7553
 O    0.7247    0.8371    0.7727
 O    0.6820    0.7089    0.8220
 C    0.4160    0.7184    0.9446
 H    0.3139    0.7316    0.9180
 C    0.5561    0.7123    0.9153
 C    0.6886    0.6953    0.9488
 H    0.7971    0.6906    0.9258
 O    0.4520    0.7565    0.8257
 C    0.5640    0.7271    0.8493
 C    0.5805    0.2365    0.0568
 H    0.6820    0.2261    0.0849
 C    0.4365    0.2396    0.0838
 C    0.3045    0.2527    0.0483
 H    0.1933    0.2545    0.0699
 C    0.4221    0.2258    0.1498
 O    0.2910    0.2375    0.1716
Zn    0.4805    0.2801    0.7365
 C    0.3582    0.4308    0.7415
 C    0.4701    0.2655    0.8917
 N    0.5296    0.2227    0.6694
 C    0.4893    0.2952    0.5816
 N    0.4300    0.3377    0.8035
 N    0.5228    0.2103    0.7992
 N    0.4357    0.3499    0.6738
 C    0.3107    0.5994    0.7760
 H    0.3751    0.6360    0.7979
 C    0.3759    0.5418    0.7714
 H    0.4919    0.5336    0.7897
 C    0.2931    0.4939    0.7438
 C    0.1443    0.5052    0.7199
 H    0.0793    0.4680    0.6986
 C    0.0785    0.5627    0.7245
 C    0.1617    0.6102    0.7527
 C    0.5504    0.1496    0.7877
 C    0.4735    0.2974    0.5144
 C    0.5703    0.1260    0.7305
 C    0.5282    0.2376    0.6086
 C    0.4598    0.2581    0.9586
 C    0.5918    0.2459    0.9947
 H    0.7035    0.2435    0.9735
 C    0.3163    0.2616    0.9862
 H    0.2134    0.2705    0.9584
 C    0.3877    0.4084    0.6846
 C    0.5657    0.1839    0.5757
 H    0.5735    0.1824    0.5272
 C    0.5508    0.1128    0.8436
 H    0.5657    0.0632    0.8479
 C    0.4335    0.3232    0.8645
 C    0.3877    0.3759    0.8970
 H    0.3823    0.3778    0.9455
 C    0.7218    0.0296    0.7546
 H    0.8135    0.0583    0.7742
 C    0.4759    0.0208    0.7013
 H    0.3748    0.0426    0.6803
 C    0.5913    0.0579    0.7281
 C    0.5883    0.1367    0.6173
 H    0.6193    0.0896    0.6091
 C    0.4096    0.4061    0.5836
 H    0.4121    0.4169    0.5355
 C    0.5634    0.1610    0.6759
 C    0.3806    0.3976    0.7966
 C    0.5073    0.2129    0.8606
 C    0.4350    0.2782    0.3912
 C    0.3728    0.4441    0.6282
 H    0.3406    0.4922    0.6237
 C    0.4480    0.3472    0.6124
 C    0.5255    0.1519    0.8886
 H    0.5163    0.1403    0.9363
 C    0.3524    0.4215    0.8551
 H    0.3107    0.4671    0.8631
 C    0.3056    0.2794    0.4279
 H    0.1911    0.2705    0.4084
 C    0.3248    0.2892    0.4889
 H    0.2254    0.2877    0.5181
 C    0.5822    0.2918    0.4153
 H    0.6812    0.2918    0.3861
 C    0.6011    0.3012    0.4768
 H    0.7162    0.3088    0.4963
Cl    0.7502    0.1645    0.3561
 O    0.1727    0.7185    0.7724
 O    0.2871    0.2306    0.3164
 C    0.4172    0.2548    0.3295
 C    0.0905    0.6710    0.7595
 O    0.0632    0.1524    0.3109
 O    0.5235    0.8284    0.7079
 C    0.7332    0.9657    0.7568
 H    0.8338    0.9438    0.7779
 C    0.6145    0.9289    0.7320
 C    0.4871    0.9568    0.7031
 H    0.3963    0.9279    0.6836
 C    0.6202    0.8606    0.7380
 H    0.9623    0.5714    0.7068
Cl    0.7446    0.0978    0.2198
 O    0.0379    0.1628    0.1698
 H    0.9329    0.1507    0.1840
 H    0.0863    0.1241    0.1611
 H    0.0598    0.7954    0.8242
 H    0.9076    0.8231    0.8473
 H    0.0263    0.7834    0.6756
 H    0.0256    0.8330    0.7235
 H    0.1161    0.1662    0.3474
 H    0.9497    0.1551    0.3184
