data_crystal

_audit_creation_method 'AiiDA-DDEC plugin'

_cell_length_a        10.41973
_cell_length_b        10.42068
_cell_length_c        36.49815

_cell_angle_alpha     90.01012
_cell_angle_beta     89.99776
_cell_angle_gamma     102.72476

_symmetry_space_group_name_Hall 'P 1'
_symmetry_space_group_name_H-M  'P 1'

loop_
_symmetry_equiv_pos_as_xyz
 'x,y,z'

loop_
_atom_site_label
_atom_site_type_symbol
_atom_site_fract_x
_atom_site_fract_y
_atom_site_fract_z
_atom_site_charge
Ce         Ce      0.63754   0.63821   0.00020   1.92987
Ce         Ce      0.13831   0.13953   0.50009   1.94358
H          H       0.92533   0.52796   0.79558   0.10775
H          H       0.97773   0.44505   0.60483   0.39003
H          H       0.30664   0.78237   0.81489   0.12193
H          H       0.07351   0.16682   0.63925   0.11124
H          H       0.85441   0.64012   0.83122   0.08954
H          H       0.01249   0.43943   0.74105   0.12273
H          H       0.28758   0.74430   0.69450   0.11508
H          H       0.92042   0.64876   0.71101   0.11061
H          H       0.84885   0.09231   0.61159   0.10219
H          H       0.39431   0.68919   0.76124   0.11227
H          H       0.14594   0.05972   0.75029   0.11349
H          H       0.77399   0.69268   0.89190   0.10311
H          H       0.16382  -0.00299   0.62848   0.11084
H          H       0.97956   0.88063   0.73285   0.10794
H          H       0.46699   0.86512   0.65499   0.11133
H          H       0.16698   0.40164   0.65406   0.12203
H          H       0.10380   0.76827   0.60703   0.13271
H          H       0.22638   0.29494   0.76568   0.12507
H          H       0.45970   0.40427   0.69088   0.11106
H          H       0.25364   0.78180   0.86816   0.09755
H          H       0.68213   0.96549   0.65395   0.09479
H          H       0.16999   0.84455   0.92769   0.11978
H          H       0.86894   0.73725   0.55443   0.12481
H          H       0.69000   0.61088   0.59386   0.11123
H          H       0.63933   0.52502   0.65209   0.10879
H          H       0.52793   0.92525   0.20439   0.10798
H          H       0.44497   0.97777   0.39517   0.38987
H          H       0.78230   0.30654   0.18507   0.12208
H          H       0.16682   0.07351   0.36074   0.11102
H          H       0.64019   0.85430   0.16873   0.08923
H          H       0.43951   0.01237   0.25894   0.12240
H          H       0.74438   0.28770   0.30549   0.11517
H          H       0.64864   0.92037   0.28899   0.11090
H          H       0.09262   0.84900   0.38844   0.10280
H          H       0.68919   0.39416   0.23874   0.11195
H          H       0.05960   0.14585   0.24971   0.11348
H          H       0.69323   0.77404   0.10811   0.10234
H          H      -0.00298   0.16371   0.37154   0.11047
H          H       0.88055   0.97950   0.26715   0.10767
H          H       0.86527   0.46708   0.34497   0.11131
H          H       0.40166   0.16695   0.34594   0.12208
H          H       0.76829   0.10370   0.39298   0.13246
H          H       0.29483   0.22623   0.23431   0.12484
H          H       0.40431   0.45968   0.30909   0.11083
H          H       0.78181   0.25368   0.13183   0.09774
H          H       0.96580   0.68230   0.34611   0.09491
H          H       0.84514   0.16982   0.07235   0.11959
H          H       0.73755   0.86900   0.44562   0.12463
H          H       0.61113   0.69002   0.40625   0.11124
H          H       0.52503   0.63934   0.34787   0.10866
H          H       0.02704   0.42538   0.29561   0.10831
H          H       0.94493   0.47773   0.10480   0.38962
H          H       0.28158   0.80636   0.31512   0.12288
H          H       0.66681   0.57398   0.13924   0.11031
H          H       0.13969   0.35424   0.33095   0.08943
H          H       0.93919   0.51263   0.24098   0.12229
H          H       0.24432   0.78719   0.19445   0.11582
H          H       0.14861   0.42039   0.21099   0.11102
H          H       0.59545   0.34809   0.11258   0.10094
H          H       0.18906   0.89428   0.26138   0.11221
H          H       0.55960   0.64568   0.25032   0.11358
H          H       0.19520   0.27306   0.39134   0.10331
H          H       0.49690   0.66416   0.12851   0.11058
H          H       0.38051   0.47950   0.23283   0.10767
H          H       0.36576   0.96654   0.15506   0.11177
H          H       0.90165   0.66728   0.15408   0.12182
H          H       0.26810   0.60415   0.10707   0.13321
H          H       0.79475   0.72615   0.26573   0.12524
H          H       0.90473   0.96005   0.19069   0.11052
H          H       0.27963   0.75311   0.36841   0.09721
H          H       0.46644   0.18158   0.15472   0.09453
H          H       0.34531   0.66824   0.42760   0.11970
H          H       0.24275   0.37017   0.05465   0.12488
H          H       0.11384   0.19177   0.09386   0.11147
H          H       0.02607   0.13954   0.15199   0.10810
H          H       0.42540   0.02703   0.70436   0.10832
H          H       0.47778   0.94503   0.89521   0.39032
H          H       0.80647   0.28158   0.68490   0.12271
H          H       0.57391   0.66683   0.86077   0.11034
H          H       0.35423   0.14006   0.66907   0.08901
H          H       0.51265   0.93920   0.75899   0.12227
H          H       0.78707   0.24416   0.80557   0.11522
H          H       0.42040   0.14864   0.78900   0.11106
H          H       0.34746   0.59567   0.88738   0.10095
H          H       0.89435   0.18903   0.73865   0.11199
H          H       0.64576   0.55961   0.74970   0.11372
H          H       0.27290   0.19493   0.60865   0.10297
H          H       0.66411   0.49687   0.87151   0.11039
H          H       0.47954   0.38049   0.76717   0.10751
H          H       0.96660   0.36558   0.84494   0.11124
H          H       0.66723   0.90162   0.84594   0.12169
H          H       0.60409   0.26811   0.89294   0.13334
H          H       0.72623   0.79474   0.73429   0.12529
H          H       0.96003   0.90463   0.80933   0.11044
H          H       0.75300   0.28009   0.63155   0.09734
H          H       0.18169   0.46615   0.84518   0.09447
H          H       0.66806   0.34511   0.57234   0.11898
H          H       0.36965   0.24313   0.94547   0.12525
H          H       0.19199   0.11408   0.90606   0.11162
H          H       0.13965   0.02605   0.84800   0.10836
C          C       0.21000   0.55596   0.74787   0.17677
C          C       0.02798   0.56507   0.78831  -0.12027
C          C       0.56827   0.70552   0.65087   0.06545
C          C       0.10953   0.66054   0.81050   0.05327
C          C       0.24142   0.70638   0.79924  -0.12057
C          C       0.06097   0.70359   0.84518   0.06104
C          C       0.11096   0.19434   0.66664  -0.11109
C          C       0.00763   0.69401   0.65773  -0.06306
C          C       0.92493   0.68103   0.85238  -0.14044
C          C       0.87064   0.92284   0.58057  -0.03396
C          C       0.96663   0.76956   0.91365  -0.00803
C          C       0.20568   0.36218   0.71038   0.16436
C          C       0.07372   0.95632   0.68194   0.07493
C          C       0.07664   0.51343   0.75766  -0.17682
C          C       0.36648   0.69802   0.68577  -0.17195
C          C       0.97374   0.72639   0.69332  -0.08766
C          C       0.36307   0.56708   0.69591   0.16336
C          C       0.81541   0.98651   0.60836  -0.09260
C          C       0.29130   0.65552   0.76863  -0.16990
C          C       0.14800   0.13385   0.72915  -0.12467
C          C       0.87884   0.71193   0.88617  -0.10419
C          C       0.10911   0.92187   0.64664  -0.13352
C          C       0.96638   0.55696   0.64520   0.55597
C          C       0.00749   0.85595   0.70544  -0.13897
C          C       0.46777   0.76544   0.66368  -0.11326
C          C       0.16132   0.32584   0.67484  -0.15501
C          C       0.07694   0.79256   0.63454  -0.06897
C          C       0.19496   0.26595   0.73788  -0.16545
C          C       0.67384   0.77871   0.62709   0.06742
C          C       0.46195   0.50557   0.68322  -0.17473
C          C       0.14838   0.76335   0.87297  -0.12640
C          C       0.72030   0.91535   0.63169  -0.13419
C          C       0.10216   0.79818   0.90643  -0.10157
C          C       0.10864   0.09538   0.69310   0.05123
C          C       0.82661   0.78626   0.57616  -0.08561
C          C       0.72828   0.71542   0.59877  -0.12942
C          C       0.91379   0.80386   0.94958   0.59566
C          C       0.56264   0.57389   0.66103  -0.10965
C          C       0.97571  -0.00015   0.55645   0.56675
C          C       0.55594   0.20992   0.25210   0.17655
C          C       0.56505   0.02791   0.21166  -0.12115
C          C       0.70567   0.56840   0.34912   0.06600
C          C       0.66048   0.10945   0.18947   0.05390
C          C       0.70633   0.24132   0.20073  -0.12126
C          C       0.70347   0.06095   0.15480   0.06028
C          C       0.19435   0.11094   0.33335  -0.11121
C          C       0.69397   0.00757   0.34228  -0.06278
C          C       0.68114   0.92493   0.14760  -0.14025
C          C       0.92300   0.87088   0.41941  -0.03322
C          C       0.77020   0.96665   0.08640  -0.00822
C          C       0.36220   0.20561   0.28961   0.16409
C          C       0.95627   0.07368   0.31806   0.07480
C          C       0.51341   0.07656   0.24232  -0.17637
C          C       0.69809   0.36657   0.31422  -0.17228
C          C       0.72631   0.97369   0.30668  -0.08808
C          C       0.56714   0.36308   0.30407   0.16324
C          C       0.98678   0.81559   0.39167  -0.09363
C          C       0.65544   0.29118   0.23133  -0.16985
C          C       0.13378   0.14792   0.27085  -0.12514
C          C       0.71246   0.87888   0.11385  -0.10427
C          C       0.92186   0.10904   0.35337  -0.13310
C          C       0.55694   0.96632   0.35481   0.55609
C          C       0.85586   0.00744   0.29457  -0.13825
C          C       0.76557   0.46789   0.33630  -0.11314
C          C       0.32587   0.16127   0.32515  -0.15517
C          C       0.79255   0.07687   0.36548  -0.06910
C          C       0.26590   0.19486   0.26212  -0.16469
C          C       0.77893   0.67392   0.37295   0.06772
C          C       0.50563   0.46195   0.31676  -0.17421
C          C       0.76346   0.14839   0.12704  -0.12676
C          C       0.91560   0.72045   0.36836  -0.13437
C          C       0.79875   0.10214   0.09364  -0.10175
C          C       0.09535   0.10859   0.30689   0.05087
C          C       0.78648   0.82669   0.42388  -0.08606
C          C       0.71563   0.72832   0.40127  -0.12982
C          C       0.80419   0.91398   0.05043   0.59664
C          C       0.57399   0.56270   0.33894  -0.11059
C          C      -0.00031   0.97602   0.44353   0.56666
C          C       0.05575   0.71015   0.24790   0.17691
C          C       0.06424   0.52801   0.28833  -0.12210
C          C       0.20658   0.06838   0.15098   0.06336
C          C       0.15957   0.60940   0.31058   0.05422
C          C       0.20564   0.74131   0.29940  -0.12130
C          C       0.20261   0.56055   0.34519   0.06004
C          C       0.69431   0.61137   0.16664  -0.11146
C          C       0.19391   0.50779   0.15773  -0.06237
C          C       0.18085   0.42443   0.35216  -0.14024
C          C       0.42708   0.36983   0.08113  -0.03458
C          C       0.27228   0.46557   0.41307  -0.01160
C          C       0.86213   0.70595   0.21039   0.16445
C          C       0.45622   0.57389   0.18195   0.07476
C          C       0.01298   0.57679   0.25765  -0.17630
C          C       0.19824   0.86622   0.18574  -0.17420
C          C       0.22626   0.47380   0.19332  -0.08842
C          C       0.06731   0.86306   0.19586   0.16395
C          C       0.48970   0.31488   0.10913  -0.09211
C          C       0.15511   0.79130   0.26876  -0.17011
C          C       0.63376   0.64797   0.22917  -0.12509
C          C       0.21363   0.37793   0.38570  -0.10191
C          C       0.42175   0.60935   0.14666  -0.13339
C          C       0.05684   0.46646   0.14520   0.55668
C          C       0.35581   0.50754   0.20543  -0.13740
C          C       0.26608   0.96753   0.16374  -0.11214
C          C       0.82580   0.66167   0.17485  -0.15541
C          C       0.29246   0.57718   0.13455  -0.07046
C          C       0.76586   0.69498   0.23790  -0.16479
C          C       0.28066   0.17419   0.12742   0.07130
C          C       0.00606   0.96205   0.18310  -0.17339
C          C       0.26227   0.64783   0.37301  -0.12568
C          C       0.41726   0.22018   0.13234  -0.13483
C          C       0.29883   0.60120   0.40618  -0.10098
C          C       0.59530   0.60884   0.19311   0.05111
C          C       0.29047   0.32704   0.07650  -0.08338
C          C       0.21837   0.22930   0.09902  -0.13200
C          C       0.30939   0.41340   0.44874   0.59604
C          C       0.07479   0.06280   0.16099  -0.10912
C          C       0.50360   0.47319   0.05661   0.56653
C          C       0.71016   0.05571   0.75209   0.17620
C          C       0.52804   0.06428   0.71164  -0.12194
C          C       0.06849   0.20652   0.84899   0.06439
C          C       0.60944   0.15965   0.68941   0.05368
C          C       0.74135   0.20567   0.70062  -0.12144
C          C       0.56054   0.20254   0.65476   0.06068
C          C       0.61135   0.69430   0.83338  -0.11117
C          C       0.50775   0.19391   0.84227  -0.06268
C          C       0.42442   0.18071   0.64781  -0.14033
C          C       0.36951   0.42749   0.91895  -0.03494
C          C       0.46514   0.27163   0.58680  -0.01393
C          C       0.70592   0.86210   0.78962   0.16446
C          C       0.57385   0.45623   0.81806   0.07474
C          C       0.57680   0.01300   0.74233  -0.17618
C          C       0.86618   0.19812   0.81425  -0.17287
C          C       0.47378   0.22627   0.80668  -0.08792
C          C       0.86302   0.06719   0.80414   0.16357
C          C       0.31456   0.48992   0.89088  -0.09272
C          C       0.79135   0.15509   0.73126  -0.16975
C          C       0.64802   0.63374   0.77085  -0.12491
C          C       0.37778   0.21312   0.61424  -0.10123
C          C       0.60929   0.42175   0.85336  -0.13299
C          C       0.46650   0.05688   0.85480   0.55692
C          C       0.50753   0.35583   0.79458  -0.13748
C          C       0.96758   0.26595   0.83624  -0.11287
C          C       0.66164   0.82578   0.82516  -0.15578
C          C       0.57712   0.29246   0.86546  -0.07050
C          C       0.69502   0.76583   0.76212  -0.16497
C          C       0.17422   0.28071   0.87257   0.07090
C          C       0.96208   0.00599   0.81689  -0.17257
C          C       0.64767   0.26217   0.62690  -0.12786
C          C       0.22009   0.41726   0.86764  -0.13518
C          C       0.60087   0.29842   0.59369  -0.09797
C          C       0.60884   0.59529   0.80691   0.05077
C          C       0.32676   0.29088   0.92358  -0.08414
C          C       0.22929   0.21864   0.90101  -0.13192
C          C       0.41222   0.30954   0.55128   0.59514
C          C       0.06289   0.07473   0.83899  -0.11028
C          C       0.47319   0.50400   0.94343   0.56782
N          N       0.26044   0.49662   0.71832  -0.11310
N          N       0.49666   0.26038   0.28167  -0.11342
N          N       0.99661   0.76065   0.21831  -0.11304
N          N       0.76060   0.99654   0.78170  -0.11322
O          O       0.01291   0.53732   0.61110  -0.46480
O          O       0.05201   0.94069   0.53885  -0.61981
O          O       0.89702   0.46745   0.66287  -0.49835
O          O       0.81782   0.71415   0.96317  -0.71409
O          O       0.96103   0.91373   0.96286  -0.41981
O          O       0.98735   0.12553   0.55354  -0.64470
O          O       0.53725   0.01290   0.38890  -0.46491
O          O       0.94005   0.05206   0.46110  -0.62134
O          O       0.46741   0.89690   0.33713  -0.49851
O          O       0.71379   0.81849   0.03682  -0.71525
O          O       0.91399   0.96081   0.03710  -0.42074
O          O       0.12535   0.98800   0.44647  -0.64520
O          O       0.03721   0.51291   0.11109  -0.46536
O          O       0.44164   0.54589   0.03849  -0.61777
O          O       0.96744   0.39713   0.16287  -0.49790
O          O       0.22575   0.31076   0.46131  -0.71810
O          O       0.41562   0.46782   0.46297  -0.42072
O          O       0.62961   0.48748   0.05375  -0.64368
O          O       0.51293   0.03728   0.88891  -0.46576
O          O       0.54600   0.44200   0.96150  -0.61817
O          O       0.39717   0.96740   0.83712  -0.49817
O          O       0.30784   0.22704   0.53894  -0.72042
O          O       0.46724   0.41536   0.53700  -0.42004
O          O       0.48737   0.62995   0.94629  -0.64554
