data_crystal

_cell_length_a 10.44770
_cell_length_b 11.49450
_cell_length_c 12.95830
_cell_angle_alpha 106.63900
_cell_angle_beta  90.32200
_cell_angle_gamma 93.19400

_symmetry_space_group_name_	'P 1'
_symmetry_space_group_name_H-M	'P 1'

loop_
_symmetry_equiv_pos_as_xyz
  x,y,z

loop_
_atom_site_label
_atom_site_type_symbol
_atom_site_fract_x
_atom_site_fract_y
_atom_site_fract_z
_atom_site_charge
Pr	Pr	0.47424 0.45386 0.33549 2.03200
C 	C 	0.49340 0.23160 0.16590 0.31800
C 	C 	0.51250 0.74800 0.50460 0.44500
C 	C 	0.26420 0.48900 0.56660 0.38900
C 	C 	0.49820 0.11330 0.08210 -0.10500
C 	C 	0.50690 0.87980 0.50480 -0.14600
C 	C 	0.12870 0.49320 0.53190 -0.15100
C 	C 	0.44740 0.00530 0.10120 0.05000
C 	C 	0.39130 0.93620 0.52630 0.05000
C 	C 	0.07540 0.40420 0.44280 0.03600
C 	C 	0.39630 0.00360 0.20440 -0.08200
H 	H 	0.39730 0.07570 0.26000 0.07800
C 	C 	0.27760 0.87600 0.55090 -0.07900
H 	H 	0.27970 0.79610 0.55360 0.06000
C 	C 	0.14680 0.30640 0.38340 -0.09600
H 	H 	0.23110 0.30160 0.40460 0.03800
C 	C 	0.34730 0.90030 0.22190 -0.02500
H 	H 	0.31470 0.90250 0.28900 0.04000
C 	C 	0.16760 0.93250 0.57020 -0.03400
H 	H 	0.09420 0.89110 0.58500 0.04500
C 	C 	0.09500 0.21970 0.29630 -0.04100
H 	H 	0.14390 0.15690 0.25820 0.04900
C 	C 	0.34490 0.78850 0.13950 -0.03100
H 	H 	0.31100 0.71790 0.15300 0.01500
C 	C 	0.16190 0.05530 0.56820 -0.01800
H 	H 	0.08600 0.09460 0.58460 0.03600
C 	C 	0.96470 0.22510 0.26330 -0.01600
H 	H 	0.92930 0.16560 0.20390 0.04100
C 	C 	0.39210 0.78360 0.04000 -0.07700
H 	H 	0.38900 0.70970 0.98640 0.04600
C 	C 	0.26600 0.11480 0.54270 -0.09300
H 	H 	0.26000 0.19410 0.53940 0.07000
C 	C 	0.89310 0.31600 0.31790 -0.10100
H 	H 	0.80870 0.31770 0.29560 0.08100
C 	C 	0.44670 0.89160 0.01720 0.04200
C 	C 	0.38540 0.05900 0.52050 0.05900
C 	C 	0.94430 0.41000 0.40960 0.05500
O 	O 	0.38540 0.27750 0.18460 -0.46300
O 	O 	0.48970 0.67160 0.41440 -0.53600
O 	O 	0.35460 0.50990 0.50770 -0.61100
O 	O 	0.59510 0.28380 0.21380 -0.43200
O 	O 	0.53880 0.72610 0.59040 -0.49200
O 	O 	0.28470 0.47430 0.65600 -0.44600
Pr	Pr	0.52576 0.54614 0.66451 2.03200
C 	C 	0.50660 0.76840 0.83410 0.31800
C 	C 	0.48750 0.25200 0.49540 0.44500
C 	C 	0.73580 0.51100 0.43340 0.38900
C 	C 	0.50180 0.88670 0.91790 -0.10500
C 	C 	0.49310 0.12020 0.49520 -0.14600
C 	C 	0.87130 0.50680 0.46810 -0.15100
C 	C 	0.55260 0.99470 0.89880 0.05000
C 	C 	0.60870 0.06380 0.47370 0.05000
C 	C 	0.92460 0.59580 0.55720 0.03600
C 	C 	0.60370 0.99640 0.79560 -0.08200
H 	H 	0.60270 0.92430 0.74000 0.07800
C 	C 	0.72240 0.12400 0.44910 -0.07900
H 	H 	0.72030 0.20390 0.44640 0.06000
C 	C 	0.85320 0.69360 0.61660 -0.09600
H 	H 	0.76890 0.69840 0.59540 0.03800
C 	C 	0.65270 0.09970 0.77810 -0.02500
H 	H 	0.68530 0.09750 0.71100 0.04000
C 	C 	0.83240 0.06750 0.42980 -0.03400
H 	H 	0.90580 0.10890 0.41500 0.04500
C 	C 	0.90500 0.78030 0.70370 -0.04100
H 	H 	0.85610 0.84310 0.74180 0.04900
C 	C 	0.65510 0.21150 0.86050 -0.03100
H 	H 	0.68900 0.28210 0.84700 0.01500
C 	C 	0.83810 0.94470 0.43180 -0.01800
H 	H 	0.91400 0.90540 0.41540 0.03600
C 	C 	0.03530 0.77490 0.73670 -0.01600
H 	H 	0.07070 0.83440 0.79610 0.04100
C 	C 	0.60790 0.21640 0.96000 -0.07700
H 	H 	0.61100 0.29030 0.01360 0.04600
C 	C 	0.73400 0.88520 0.45730 -0.09300
H 	H 	0.74000 0.80590 0.46060 0.07000
C 	C 	0.10690 0.68400 0.68210 -0.10100
H 	H 	0.19130 0.68230 0.70440 0.08100
C 	C 	0.55330 0.10840 0.98280 0.04200
C 	C 	0.61460 0.94100 0.47950 0.05900
C 	C 	0.05570 0.59000 0.59040 0.05500
O 	O 	0.61460 0.72250 0.81540 -0.46300
O 	O 	0.51030 0.32840 0.58560 -0.53600
O 	O 	0.64540 0.49010 0.49230 -0.61100
O 	O 	0.40490 0.71620 0.78620 -0.43200
O 	O 	0.46120 0.27390 0.40960 -0.49200
O 	O 	0.71530 0.52570 0.34400 -0.44600
