data_block_1
_audit_creation_date         'Tue Jan 25 16:38:57 2022'
_audit_creation_method       'generated by GDIS v0.91'


_cell_length_a             13.1380
_cell_length_b             26.3430
_cell_length_c             23.7450
_cell_angle_alpha          90.00
_cell_angle_beta           91.05
_cell_angle_gamma          90.00


_symmetry_space_group_name_H-M   'P 1'
_symmetry_Int_Tables_number       1


loop_
_atom_site_label
_atom_site_fract_x
_atom_site_fract_y
_atom_site_fract_z
Co    0.3844    0.3099    0.2449
Co    0.4780    0.4307    0.2538
Co    0.3503    0.6722    0.7484
 F    0.5070    0.3560    0.2495
 P    0.0479    0.4409    0.5312
 O    0.3190    0.3405    0.3159
 O    0.3543    0.4234    0.3063
 O    0.4262    0.5638    0.6752
 O    0.2966    0.6177    0.6900
 O    0.1149    0.2298    0.6942
 O    0.3801    0.4303    0.1837
 O    0.2995    0.3555    0.1922
 O    0.1996    0.7009    0.7463
 H    0.1610    0.7162    0.7145
 H    0.1504    0.7021    0.7773
 N    0.0463    0.0105    0.2424
 N    0.2646    0.2549    0.2427
 C    0.1246    0.4224    0.4706
 C    0.1436    0.3722    0.4562
 H    0.1174    0.3456    0.4788
 C    0.2001    0.3606    0.4095
 H    0.2111    0.3261    0.3997
 C    0.2412    0.3989    0.3768
 C    0.2222    0.4488    0.3906
 H    0.2497    0.4753    0.3683
 C    0.1634    0.4608    0.4365
 H    0.1493    0.4953    0.4449
 C    0.3109    0.3862    0.3284
 C    0.1389    0.4807    0.5711
 C    0.2434    0.4802    0.5635
 H    0.2717    0.4583    0.5361
 C    0.3072    0.5114    0.5958
 H    0.3787    0.5102    0.5907
 C    0.2672    0.5442    0.6352
 C    0.1621    0.5450    0.6426
 H    0.1336    0.5673    0.6695
 C    0.0993    0.5134    0.6109
 H    0.0279    0.5142    0.6165
 C    0.3364    0.5780    0.6700
 C    0.0498    0.3822    0.5734
 C    0.1365    0.3618    0.5987
 H    0.2002    0.3783    0.5945
 C    0.1312    0.3176    0.6298
 H    0.1912    0.3044    0.6472
 C    0.0399    0.2926    0.6359
 C    0.0336    0.2446    0.6713
 C    0.1278    0.4317    0.0232
 C    0.1137    0.3873    0.0539
 H    0.0628    0.3638    0.0422
 C    0.1731    0.3771    0.1013
 H    0.1636    0.3462    0.1211
 C    0.2460    0.4111    0.1203
 C    0.2569    0.4566    0.0914
 H    0.3048    0.4811    0.1047
 C    0.1982    0.4666    0.0432
 H    0.2067    0.4978    0.0239
 C    0.3147    0.3981    0.1696
 C    0.0506    0.0379    0.2895
 H    0.0314    0.0223    0.3238
 C    0.0817    0.0879    0.2907
 H    0.0828    0.1060    0.3253
 C    0.1116    0.1118    0.2413
 C    0.1030    0.0836    0.1917
 H    0.1194    0.0985    0.1566
 C    0.0702    0.0335    0.1940
 H    0.0645    0.0148    0.1599
 C    0.1578    0.1631    0.2420
 C    0.1881    0.1863    0.2917
 H    0.1724    0.1712    0.3268
 C    0.2409    0.2313    0.2905
 H    0.2615    0.2463    0.3253
 C    0.2304    0.2348    0.1945
 H    0.2429    0.2524    0.1604
 C    0.1774    0.1893    0.1918
 H    0.1548    0.1760    0.1565
Co    0.5220    0.5693    0.7462
Co    0.1497    0.1722    0.7515
Co    0.6497    0.3279    0.2515
 F    0.4930    0.6440    0.7505
 O    0.5738    0.4362    0.3248
 O    0.3851    0.7298    0.8057
 O    0.4472    0.2754    0.1741
 O    0.3790    0.7228    0.6822
 O    0.4604    0.2570    0.2946
 O    0.5999    0.4464    0.2024
 O    0.3038    0.6227    0.8114
 N    0.4537    0.5105    0.2576
 P    0.0455    0.4451    0.9621
 O    0.1210    0.2228    0.8178
 O    0.4001    0.5536    0.7976
 C    0.0502    0.3846    0.9232
 C    0.1283    0.3482    0.9277
 H    0.1828    0.3532    0.9540
 C    0.1264    0.3055    0.8946
 H    0.1804    0.2816    0.8975
 C    0.0465    0.2970    0.8569
 C    0.0422    0.2501    0.8196
 C    0.1312    0.4838    0.9191
 C    0.0971    0.5298    0.8985
 H    0.0301    0.5408    0.9065
 C    0.1599    0.5603    0.8662
 H    0.1355    0.5921    0.8528
 C    0.2571    0.5448    0.8535
 C    0.2891    0.4974    0.8721
 H    0.3549    0.4855    0.8626
 C    0.2269    0.4673    0.9042
 H    0.2501    0.4348    0.9162
 C    0.3262    0.5764    0.8175
Co    0.0220    0.9307    0.2462
 O    0.9472    0.2246    0.6741
 C    0.9532    0.3124    0.6097
 H    0.8898    0.2955    0.6131
 C    0.9588    0.3570    0.5786
 H    0.8992    0.3703    0.5607
Co    0.8844    0.1901    0.7449
 O    0.9604    0.2430    0.7946
 C    0.9691    0.3325    0.8524
 H    0.9140    0.3272    0.8266
 C    0.9716    0.3756    0.8854
 H    0.9180    0.3997    0.8818
 O    0.0999    0.0536    0.7024
 O    0.1962    0.1227    0.6886
 C    0.4029    0.0298    0.6015
 H    0.4700    0.0408    0.5935
 C    0.3401    0.0603    0.6338
 H    0.3645    0.0921    0.6472
 C    0.2429    0.0448    0.6465
 C    0.1738    0.0764    0.6825
 O    0.0738    0.0638    0.8248
 O    0.2034    0.1177    0.8100
 O    0.3004    0.2009    0.7537
 H    0.3390    0.2162    0.7855
 H    0.3496    0.2021    0.7227
 C    0.1928    0.0114    0.9042
 H    0.1213    0.0102    0.9092
 C    0.2328    0.0442    0.8648
 C    0.3379    0.0450    0.8574
 H    0.3664    0.0673    0.8305
 C    0.4007    0.0134    0.8891
 H    0.4721    0.0142    0.8835
 C    0.1636    0.0780    0.8299
 F    0.0070    0.1440    0.7495
Co    0.1156    0.8099    0.2551
 P    0.4545    0.9451    0.5379
 O    0.1810    0.8405    0.1841
 O    0.1457    0.9234    0.1937
 O    0.1199    0.9303    0.3163
 O    0.2005    0.8555    0.3078
 O    0.5396    0.7430    0.7054
 N    0.2354    0.7549    0.2573
 C    0.3754    0.9224    0.0294
 C    0.3564    0.8722    0.0438
 H    0.3826    0.8456    0.0212
 C    0.2999    0.8606    0.0905
 H    0.2889    0.8261    0.1003
 C    0.2588    0.8989    0.1232
 C    0.2778    0.9488    0.1094
 H    0.2503    0.9753    0.1316
 C    0.3366    0.9608    0.0635
 H    0.3507    0.9953    0.0551
 C    0.1891    0.8862    0.1716
 C    0.3722    0.9317    0.4768
 C    0.3863    0.8873    0.4461
 H    0.4372    0.8638    0.4578
 C    0.3269    0.8771    0.3987
 H    0.3364    0.8462    0.3789
 C    0.2540    0.9111    0.3797
 C    0.2431    0.9566    0.4086
 H    0.1952    0.9811    0.3953
 C    0.3018    0.9666    0.4568
 H    0.2933    0.9978    0.4761
 C    0.1853    0.8981    0.3304
 C    0.4498    0.8846    0.5768
 C    0.3717    0.8482    0.5723
 H    0.3172    0.8532    0.5460
 C    0.3736    0.8055    0.6054
 H    0.3196    0.7816    0.6024
 C    0.4535    0.7970    0.6431
 C    0.5309    0.8325    0.6476
 H    0.5860    0.8272    0.6734
 C    0.5284    0.8756    0.6146
 H    0.5820    0.8997    0.6182
 C    0.4578    0.7501    0.6804
 C    0.3688    0.9838    0.5809
 C    0.2109    0.9974    0.6279
 H    0.1452    0.9855    0.6373
 C    0.2731    0.9673    0.5958
 H    0.2499    0.9348    0.5838
 C    0.4494    0.5379    0.2105
 H    0.4686    0.5223    0.1762
 C    0.4183    0.5879    0.2093
 H    0.4172    0.6060    0.1747
 C    0.3884    0.6118    0.2587
 C    0.3970    0.5836    0.3083
 H    0.3806    0.5985    0.3434
 C    0.4298    0.5335    0.3060
 H    0.4355    0.5148    0.3401
 C    0.3422    0.6631    0.2580
 C    0.3119    0.6863    0.2083
 H    0.3276    0.6712    0.1732
 C    0.2591    0.7313    0.2095
 H    0.2385    0.7463    0.1747
 C    0.2696    0.7348    0.3055
 H    0.2571    0.7524    0.3396
 C    0.3226    0.6893    0.3082
 H    0.3452    0.6760    0.3435
Co    0.6156    0.6901    0.7551
 O    0.0528    0.7754    0.3259
 O    0.0396    0.7570    0.2054
 P    0.4521    0.9409    0.9688
 O    0.5528    0.7246    0.8259
 C    0.3611    0.9807    0.9289
 C    0.2566    0.9802    0.9365
 H    0.2283    0.9583    0.9639
 C    0.4502    0.8822    0.9266
 C    0.3635    0.8618    0.9013
 H    0.2998    0.8783    0.9055
 C    0.3688    0.8176    0.8702
 H    0.3089    0.8044    0.8528
 C    0.4601    0.7926    0.8641
 C    0.5468    0.8124    0.8903
 H    0.6102    0.7955    0.8868
 C    0.5412    0.8570    0.9214
 H    0.6008    0.8703    0.9393
 C    0.4664    0.7446    0.8286
Co    0.9780    0.0693    0.7538
 F    0.9930    0.8560    0.2505
Co    0.8503    0.8279    0.2484
 O    0.9262    0.9362    0.1752
 O    0.9001    0.9464    0.2976
 C    0.0309    0.6675    0.1476
 H    0.0860    0.6728    0.1734
 C    0.0284    0.6244    0.1146
 H    0.0820    0.6003    0.1182
 C    0.0468    0.6876    0.3903
 H    0.1102    0.7046    0.3868
 C    0.0412    0.6430    0.4214
 H    0.1008    0.6298    0.4393
 P    0.9545    0.5549    0.0379
 O    0.8790    0.7772    0.1822
 O    0.6962    0.3773    0.1886
 C    0.9498    0.6154    0.0768
 C    0.8717    0.6518    0.0723
 H    0.8172    0.6468    0.0460
 C    0.8736    0.6945    0.1054
 H    0.8196    0.7184    0.1024
 C    0.9535    0.7031    0.1431
 C    0.9578    0.7499    0.1804
 C    0.8688    0.5162    0.0809
 C    0.9029    0.4702    0.1015
 H    0.9700    0.4593    0.0935
 C    0.8401    0.4398    0.1338
 H    0.8645    0.4079    0.1472
 C    0.7429    0.4552    0.1465
 C    0.7109    0.5026    0.1279
 H    0.6451    0.5145    0.1373
 C    0.7731    0.5327    0.0958
 H    0.7499    0.5652    0.0838
 C    0.6738    0.4236    0.1825
 P    0.9521    0.5591    0.4688
 O    0.6810    0.6595    0.6841
 O    0.6457    0.5766    0.6937
 O    0.7034    0.3823    0.3100
 O    0.8851    0.7702    0.3057
 O    0.6199    0.5697    0.8163
 O    0.7005    0.6445    0.8078
 O    0.8004    0.2991    0.2537
 H    0.8390    0.2838    0.2855
 H    0.8496    0.2979    0.2227
 N    0.9537    0.9895    0.7576
 N    0.7354    0.7451    0.7573
 C    0.8754    0.5776    0.5294
 C    0.8564    0.6278    0.5438
 H    0.8826    0.6544    0.5212
 C    0.7999    0.6394    0.5905
 H    0.7889    0.6739    0.6003
 C    0.7588    0.6011    0.6232
 C    0.7778    0.5512    0.6094
 H    0.7503    0.5247    0.6316
 C    0.8366    0.5392    0.5635
 H    0.8507    0.5047    0.5551
 C    0.6891    0.6138    0.6716
 C    0.8611    0.5193    0.4289
 C    0.7566    0.5198    0.4365
 H    0.7283    0.5417    0.4639
 C    0.6928    0.4886    0.4042
 H    0.6213    0.4898    0.4092
 C    0.7328    0.4558    0.3648
 C    0.8379    0.4550    0.3574
 H    0.8664    0.4327    0.3305
 C    0.9007    0.4866    0.3891
 H    0.9721    0.4858    0.3835
 C    0.6636    0.4220    0.3299
 C    0.9502    0.6178    0.4266
 C    0.8635    0.6382    0.4013
 H    0.7998    0.6217    0.4055
 C    0.8688    0.6824    0.3702
 H    0.8088    0.6956    0.3528
 C    0.9601    0.7074    0.3641
 C    0.9664    0.7554    0.3286
 C    0.8722    0.5683    0.9768
 C    0.8863    0.6127    0.9461
 H    0.9372    0.6362    0.9578
 C    0.8269    0.6229    0.8987
 H    0.8364    0.6538    0.8789
 C    0.7540    0.5889    0.8797
 C    0.7431    0.5434    0.9086
 H    0.6952    0.5189    0.8953
 C    0.8018    0.5334    0.9568
 H    0.7933    0.5022    0.9761
 C    0.6853    0.6019    0.8304
 C    0.9494    0.9621    0.7105
 H    0.9686    0.9777    0.6762
 C    0.9183    0.9121    0.7093
 H    0.9172    0.8940    0.6747
 C    0.8884    0.8882    0.7586
 C    0.8970    0.9165    0.8083
 H    0.8806    0.9015    0.8434
 C    0.9298    0.9665    0.8060
 H    0.9355    0.9852    0.8401
 C    0.8422    0.8369    0.7580
 C    0.8119    0.8137    0.7083
 H    0.8276    0.8288    0.6732
 C    0.7591    0.7687    0.7095
 H    0.7385    0.7537    0.6747
 C    0.7696    0.7652    0.8055
 H    0.7571    0.7476    0.8396
 C    0.8226    0.8108    0.8082
 H    0.8452    0.8240    0.8435
 O    0.6149    0.2702    0.1943
 O    0.6210    0.2772    0.3178
 N    0.5463    0.4895    0.7423
 P    0.5479    0.0591    0.0312
 C    0.6389    0.0193    0.0711
 C    0.7434    0.0198    0.0635
 H    0.7717    0.0417    0.0361
 C    0.5498    0.1178    0.0734
 C    0.6365    0.1382    0.0987
 H    0.7002    0.1217    0.0945
 C    0.6312    0.1824    0.1298
 H    0.6911    0.1956    0.1472
 C    0.5399    0.2074    0.1359
 C    0.4532    0.1876    0.1097
 H    0.3898    0.2045    0.1131
 C    0.4588    0.1430    0.0786
 H    0.3992    0.1298    0.0607
 C    0.5336    0.2554    0.1713
 P    0.5455    0.0549    0.4621
 O    0.8190    0.1595    0.8159
 O    0.8543    0.0766    0.8062
 O    0.8801    0.0697    0.6837
 O    0.7995    0.1445    0.6921
 N    0.7646    0.2451    0.7426
 C    0.6246    0.0776    0.9706
 C    0.6436    0.1278    0.9562
 H    0.6174    0.1544    0.9787
 C    0.7001    0.1394    0.9095
 H    0.7111    0.1739    0.8997
 C    0.7412    0.1011    0.8768
 C    0.7222    0.0512    0.8906
 H    0.7497    0.0247    0.8683
 C    0.6634    0.0392    0.9365
 H    0.6493    0.0047    0.9449
 C    0.8109    0.1138    0.8284
 C    0.6278    0.0683    0.5232
 C    0.6137    0.1127    0.5539
 H    0.5628    0.1362    0.5422
 C    0.6731    0.1229    0.6012
 H    0.6636    0.1538    0.6210
 C    0.7460    0.0889    0.6203
 C    0.7569    0.0434    0.5914
 H    0.8048    0.0189    0.6046
 C    0.6982    0.0334    0.5432
 H    0.7067    0.0022    0.5238
 C    0.8147    0.1019    0.6695
 C    0.5502    0.1154    0.4232
 C    0.6283    0.1518    0.4277
 H    0.6828    0.1468    0.4540
 C    0.6264    0.1945    0.3946
 H    0.6804    0.2184    0.3975
 C    0.5465    0.2031    0.3569
 C    0.4691    0.1675    0.3524
 H    0.4140    0.1728    0.3266
 C    0.4716    0.1244    0.3854
 H    0.4180    0.1003    0.3818
 C    0.5422    0.2499    0.3196
 C    0.6312    0.0162    0.4191
 C    0.7891    0.0026    0.3721
 H    0.8548    0.0145    0.3627
 C    0.7269    0.0327    0.4042
 H    0.7501    0.0652    0.4162
 C    0.5506    0.4621    0.7895
 H    0.5314    0.4777    0.8237
 C    0.5817    0.4121    0.7907
 H    0.5828    0.3940    0.8253
 C    0.6116    0.3882    0.7413
 C    0.6030    0.4165    0.6917
 H    0.6194    0.4015    0.6566
 C    0.5702    0.4665    0.6940
 H    0.5645    0.4852    0.6599
 C    0.6578    0.3369    0.7420
 C    0.6881    0.3137    0.7917
 H    0.6724    0.3288    0.8268
 C    0.7409    0.2687    0.7905
 H    0.7615    0.2537    0.8253
 C    0.7304    0.2652    0.6945
 H    0.7429    0.2476    0.6604
 C    0.6774    0.3108    0.6918
 H    0.6548    0.3240    0.6565
 O    0.7966    0.8823    0.1900
 O    0.6996    0.7991    0.2463
 H    0.6610    0.7838    0.2145
 H    0.6504    0.7979    0.2773
 C    0.8072    0.9886    0.0958
 H    0.8787    0.9898    0.0907
 C    0.7672    0.9558    0.1352
 C    0.6621    0.9550    0.1426
 H    0.6336    0.9327    0.1695
 C    0.5993    0.9866    0.1109
 H    0.5279    0.9858    0.1165
 C    0.8364    0.9220    0.1701
 O    0.8038    0.8773    0.3114
 C    0.5971    0.9702    0.3985
 H    0.5300    0.9593    0.4065
 C    0.6599    0.9398    0.3662
 H    0.6355    0.9079    0.3528
 C    0.7571    0.9552    0.3535
 C    0.8262    0.9236    0.3175


