#======================================================================

# CRYSTAL DATA

#----------------------------------------------------------------------

data_VESTA_phase_1


_chemical_name_common                  'image0'
_cell_length_a                         13.48070
_cell_length_b                         13.48070
_cell_length_c                         13.48070
_cell_angle_alpha                      86.55300
_cell_angle_beta                       86.55300
_cell_angle_gamma                      86.55300
_space_group_name_H-M_alt              'P 1'
_space_group_IT_number                 1

loop_
_space_group_symop_operation_xyz
   'x, y, z'

loop_
   _atom_site_label
   _atom_site_occupancy
   _atom_site_fract_x
   _atom_site_fract_y
   _atom_site_fract_z
   _atom_site_adp_type
   _atom_site_B_iso_or_equiv
   _atom_site_type_symbol
   Cu1        1.0     0.039500      0.611460      0.611460     Biso  1.000000 Cu
   Cu2        1.0     0.039500      0.039500      0.183420     Biso  1.000000 Cu
   Cu3        1.0     0.611460      0.039500      0.611460     Biso  1.000000 Cu
   Cu4        1.0     0.428040      0.000000      0.571960     Biso  1.000000 Cu
   Cu5        1.0     0.000000      0.000000      0.000000     Biso  1.000000 Cu
   Cu6        1.0     0.000000      0.428040      0.571960     Biso  1.000000 Cu
   H1         1.0     0.019650      0.461250      0.251510     Biso  1.000000 H
   H2         1.0     0.679550      0.019650      0.033210     Biso  1.000000 H
   H3         1.0     0.461250      0.679550      0.591610     Biso  1.000000 H
   H4         1.0     0.578250      0.019850      0.931910     Biso  1.000000 H
   H5         1.0     0.019850      0.359950      0.150210     Biso  1.000000 H
   H6         1.0     0.359950      0.578250      0.591810     Biso  1.000000 H
   H7         1.0     0.019850      0.578250      0.931910     Biso  1.000000 H
   H8         1.0     0.359950      0.019850      0.150210     Biso  1.000000 H
   H9         1.0     0.578250      0.359950      0.591810     Biso  1.000000 H
   H10        1.0     0.461250      0.019650      0.251510     Biso  1.000000 H
   H11        1.0     0.019650      0.679550      0.033210     Biso  1.000000 H
   H12        1.0     0.679550      0.461250      0.591610     Biso  1.000000 H
   H13        1.0     0.035550      0.747550      0.319510     Biso  1.000000 H
   H14        1.0     0.747550      0.035550      0.319510     Biso  1.000000 H
   H15        1.0     0.747550      0.747550      0.607510     Biso  1.000000 H
   H16        1.0     0.291950      0.003950      0.863910     Biso  1.000000 H
   H17        1.0     0.003950      0.291950      0.863910     Biso  1.000000 H
   H18        1.0     0.291950      0.291950      0.575910     Biso  1.000000 H
   C1         1.0     0.027090      0.568100      0.409260     Biso  1.000000 C
   C2         1.0     0.021970      0.529710      0.230770     Biso  1.000000 C
   C3         1.0     0.026920      0.599440      0.301260     Biso  1.000000 C
   C4         1.0     0.837300      0.027090      0.140060     Biso  1.000000 C
   C5         1.0     0.658810      0.021970      0.101670     Biso  1.000000 C
   C6         1.0     0.729300      0.026920      0.171400     Biso  1.000000 C
   C7         1.0     0.568100      0.837300      0.599050     Biso  1.000000 C
   C8         1.0     0.529710      0.658810      0.593930     Biso  1.000000 C
   C9         1.0     0.599440      0.729300      0.598880     Biso  1.000000 C
   C10        1.0     0.471400      0.012410      0.774160     Biso  1.000000 C
   C11        1.0     0.509790      0.017530      0.952650     Biso  1.000000 C
   C12        1.0     0.440060      0.012580      0.882160     Biso  1.000000 C
   C13        1.0     0.012410      0.202200      0.043360     Biso  1.000000 C
   C14        1.0     0.017530      0.380690      0.081750     Biso  1.000000 C
   C15        1.0     0.012580      0.310200      0.012020     Biso  1.000000 C
   C16        1.0     0.202200      0.471400      0.584370     Biso  1.000000 C
   C17        1.0     0.380690      0.509790      0.589490     Biso  1.000000 C
   C18        1.0     0.310200      0.440060      0.584540     Biso  1.000000 C
   C19        1.0     0.012410      0.471400      0.774160     Biso  1.000000 C
   C20        1.0     0.017530      0.509790      0.952650     Biso  1.000000 C
   C21        1.0     0.012580      0.440060      0.882160     Biso  1.000000 C
   C22        1.0     0.202200      0.012410      0.043360     Biso  1.000000 C
   C23        1.0     0.380690      0.017530      0.081750     Biso  1.000000 C
   C24        1.0     0.310200      0.012580      0.012020     Biso  1.000000 C
   C25        1.0     0.471400      0.202200      0.584370     Biso  1.000000 C
   C26        1.0     0.509790      0.380690      0.589490     Biso  1.000000 C
   C27        1.0     0.440060      0.310200      0.584540     Biso  1.000000 C
   C28        1.0     0.568100      0.027090      0.409260     Biso  1.000000 C
   C29        1.0     0.529710      0.021970      0.230770     Biso  1.000000 C
   C30        1.0     0.599440      0.026920      0.301260     Biso  1.000000 C
   C31        1.0     0.027090      0.837300      0.140060     Biso  1.000000 C
   C32        1.0     0.021970      0.658810      0.101670     Biso  1.000000 C
   C33        1.0     0.026920      0.729300      0.171400     Biso  1.000000 C
   C34        1.0     0.837300      0.568100      0.599050     Biso  1.000000 C
   C35        1.0     0.658810      0.529710      0.593930     Biso  1.000000 C
   C36        1.0     0.729300      0.599440      0.598880     Biso  1.000000 C
   C37        1.0     0.020310      0.558310      0.130270     Biso  1.000000 C
   C38        1.0     0.030630      0.699580      0.271540     Biso  1.000000 C
   C39        1.0     0.558310      0.020310      0.130270     Biso  1.000000 C
   C40        1.0     0.699580      0.030630      0.271540     Biso  1.000000 C
   C41        1.0     0.558310      0.558310      0.592270     Biso  1.000000 C
   C42        1.0     0.699580      0.699580      0.602590     Biso  1.000000 C
   C43        1.0     0.481190      0.019190      0.053150     Biso  1.000000 C
   C44        1.0     0.339920      0.008870      0.911880     Biso  1.000000 C
   C45        1.0     0.019190      0.481190      0.053150     Biso  1.000000 C
   C46        1.0     0.008870      0.339920      0.911880     Biso  1.000000 C
   C47        1.0     0.481190      0.481190      0.591150     Biso  1.000000 C
   C48        1.0     0.339920      0.339920      0.580830     Biso  1.000000 C
   O1         1.0     0.042770      0.633770      0.467500     Biso  1.000000 O
   O2         1.0     0.009850      0.479100      0.433210     Biso  1.000000 O
   O3         1.0     0.895540      0.042770      0.205730     Biso  1.000000 O
   O4         1.0     0.861250      0.009850      0.051060     Biso  1.000000 O
   O5         1.0     0.633770      0.895540      0.614730     Biso  1.000000 O
   O6         1.0     0.479100      0.861250      0.581810     Biso  1.000000 O
   O7         1.0     0.405730      0.996730      0.715920     Biso  1.000000 O
   O8         1.0     0.560400      0.029650      0.750210     Biso  1.000000 O
   O9         1.0     0.996730      0.143960      0.977690     Biso  1.000000 O
   O10        1.0     0.029650      0.178250      0.132360     Biso  1.000000 O
   O11        1.0     0.143960      0.405730      0.568690     Biso  1.000000 O
   O12        1.0     0.178250      0.560400      0.601610     Biso  1.000000 O
   O13        1.0     0.996730      0.405730      0.715920     Biso  1.000000 O
   O14        1.0     0.029650      0.560400      0.750210     Biso  1.000000 O
   O15        1.0     0.143960      0.996730      0.977690     Biso  1.000000 O
   O16        1.0     0.178250      0.029650      0.132360     Biso  1.000000 O
   O17        1.0     0.405730      0.143960      0.568690     Biso  1.000000 O
   O18        1.0     0.560400      0.178250      0.601610     Biso  1.000000 O
   O19        1.0     0.633770      0.042770      0.467500     Biso  1.000000 O
   O20        1.0     0.479100      0.009850      0.433210     Biso  1.000000 O
   O21        1.0     0.042770      0.895540      0.205730     Biso  1.000000 O
   O22        1.0     0.009850      0.861250      0.051060     Biso  1.000000 O
   O23        1.0     0.895540      0.633770      0.614730     Biso  1.000000 O
   O24        1.0     0.861250      0.479100      0.581810     Biso  1.000000 O
