data_crystal

_audit_creation_method 'AiiDA-DDEC plugin'

_cell_length_a        15.05297
_cell_length_b        15.08809
_cell_length_c        19.25624

_cell_angle_alpha     72.05973
_cell_angle_beta     72.12179
_cell_angle_gamma     80.18698

_symmetry_space_group_name_Hall 'P 1'
_symmetry_space_group_name_H-M  'P 1'

loop_
_symmetry_equiv_pos_as_xyz
 'x,y,z'

loop_
_atom_site_label
_atom_site_type_symbol
_atom_site_fract_x
_atom_site_fract_y
_atom_site_fract_z
_atom_site_charge
Ag         Ag      0.60406   0.85150   0.80762   0.19310
Ag         Ag      0.66185   0.92541   0.65587  -0.08410
Ag         Ag      0.14924   0.39489   0.69214   0.19194
Ag         Ag      0.07700   0.33589   0.84408  -0.08323
Ag         Ag      0.39594   0.14850   0.19238   0.19312
Ag         Ag      0.33815   0.07459   0.34413  -0.08411
Ag         Ag      0.85077   0.60511   0.30786   0.19186
Ag         Ag      0.92300   0.66411   0.15591  -0.08318
Ag         Ag      0.35577   0.64410   0.24989   0.28317
Ag         Ag      0.64424   0.35590   0.75010   0.28318
Ag         Ag      0.11092   0.88904   0.74984   0.28756
Ag         Ag      0.88909   0.11096   0.25016   0.28750
H          H       0.79637   0.77798   0.72068   0.08165
H          H       0.63933   0.67758   0.97583   0.08874
H          H       0.45589   0.91657   0.97153   0.08699
H          H       0.51811   0.58535   0.08334   0.08500
H          H       0.38741   0.01157   0.07552   0.08448
H          H       0.26470   0.79504   0.13359   0.13699
H          H       0.29127   0.90341   0.06202   0.11807
H          H       0.48325   0.94380   0.26749   0.08322
H          H       0.50479   0.73659   0.65819   0.11701
H          H       0.57813   0.80836   0.67491   0.07905
H          H       0.17865   0.75424   0.89124   0.08641
H          H       0.10390   0.64666   0.01589   0.09505
H          H       0.40901   0.79206   0.31508   0.08387
H          H       0.85002   0.96566   0.92392   0.11361
H          H       0.95259   0.99733   0.84655   0.13603
H          H       0.23073   0.92557   0.85791   0.08226
H          H       0.95090   0.84835   0.67150   0.08335
H          H       0.38904   0.91280   0.87958   0.08301
H          H       0.73807   0.86835   0.91426   0.08576
H          H       0.34273   0.78199   0.69368   0.08471
H          H       0.53870   0.57166   0.70003   0.08510
H          H       0.67470   0.61661   0.88346   0.08426
H          H       0.85314   0.81484   0.02194   0.09459
H          H       0.65760   0.45445   0.87918   0.08786
H          H       0.22400   0.20219   0.77866   0.08185
H          H       0.32155   0.36032   0.52364   0.08877
H          H       0.08325   0.54516   0.52807   0.08706
H          H       0.41448   0.48064   0.41579   0.08476
H          H       0.98722   0.61666   0.42251   0.08582
H          H       0.20607   0.73518   0.36555   0.13642
H          H       0.09734   0.70930   0.43701   0.11832
H          H       0.05474   0.51862   0.23190   0.08488
H          H       0.26279   0.49607   0.84191   0.11749
H          H       0.19105   0.42264   0.82513   0.07840
H          H       0.24556   0.82118   0.60928   0.08593
H          H       0.35462   0.89493   0.48507   0.09514
H          H       0.20883   0.58866   0.18552   0.08323
H          H       0.03608   0.15058   0.57447   0.11398
H          H       0.00328   0.04846   0.65191   0.13620
H          H       0.07442   0.76959   0.64102   0.08201
H          H       0.15035   0.04951   0.82856   0.08403
H          H       0.08618   0.61110   0.62047   0.08198
H          H       0.13574   0.26069   0.58384   0.08640
H          H       0.21775   0.65815   0.80586   0.08491
H          H       0.42769   0.46011   0.80134   0.08514
H          H       0.38286   0.32779   0.61594   0.08411
H          H       0.18776   0.14627   0.47731   0.09491
H          H       0.54516   0.34166   0.62225   0.08677
H          H       0.20363   0.22202   0.27932   0.08163
H          H       0.36068   0.32242   0.02417   0.08857
H          H       0.54411   0.08343   0.02847   0.08700
H          H       0.48189   0.41465   0.91665   0.08497
H          H       0.61259   0.98843   0.92448   0.08442
H          H       0.73530   0.20496   0.86640   0.13711
H          H       0.70873   0.09659   0.93798   0.11812
H          H       0.51675   0.05620   0.73251   0.08318
H          H       0.49521   0.26341   0.34181   0.11694
H          H       0.42188   0.19164   0.32509   0.07902
H          H       0.82135   0.24576   0.10876   0.08628
H          H       0.89610   0.35334   0.98410   0.09502
H          H       0.59099   0.20794   0.68492   0.08397
H          H       0.14999   0.03434   0.07608   0.11384
H          H       0.04742   0.00267   0.15345   0.13601
H          H       0.76928   0.07443   0.14209   0.08241
H          H       0.04910   0.15165   0.32849   0.08323
H          H       0.61096   0.08720   0.12042   0.08302
H          H       0.26194   0.13165   0.08573   0.08590
H          H       0.65728   0.21801   0.30632   0.08469
H          H       0.46130   0.42834   0.29997   0.08509
H          H       0.32530   0.38339   0.11654   0.08426
H          H       0.14686   0.18516   0.97806   0.09470
H          H       0.34241   0.54555   0.12082   0.08786
H          H       0.77601   0.79781   0.22134   0.08180
H          H       0.67845   0.63968   0.47636   0.08879
H          H       0.91675   0.45484   0.47193   0.08717
H          H       0.58553   0.51936   0.58421   0.08460
H          H       0.01278   0.38334   0.57749   0.08593
H          H       0.79394   0.26482   0.63445   0.13630
H          H       0.90267   0.29070   0.56299   0.11849
H          H       0.94526   0.48138   0.76810   0.08486
H          H       0.73721   0.50393   0.15809   0.11749
H          H       0.80896   0.57736   0.17487   0.07851
H          H       0.75445   0.17882   0.39071   0.08591
H          H       0.64538   0.10507   0.51493   0.09504
H          H       0.79118   0.41134   0.81448   0.08303
H          H       0.96392   0.84942   0.42553   0.11401
H          H       0.99672   0.95154   0.34808   0.13636
H          H       0.92559   0.23041   0.35898   0.08200
H          H       0.84965   0.95049   0.17144   0.08410
H          H       0.91382   0.38890   0.37953   0.08202
H          H       0.86426   0.73931   0.41616   0.08640
H          H       0.78225   0.34185   0.19413   0.08493
H          H       0.57231   0.53989   0.19866   0.08515
H          H       0.61714   0.67221   0.38406   0.08410
H          H       0.81225   0.85373   0.52268   0.09484
H          H       0.45485   0.65834   0.37775   0.08658
C          C       0.87316   0.90172   0.83323   0.21080
C          C       0.81880   0.81354   0.75300  -0.01014
C          C       0.35463   0.87557   0.15374   0.21030
C          C       0.44115   0.80242   0.74742   0.19000
C          C       0.57058   0.71039  -0.00166   0.00435
C          C       0.47002   0.84200   0.99640  -0.04374
C          C       0.50401   0.65978   0.05816   0.01545
C          C       0.39332   0.96176   0.12902  -0.04668
C          C       0.31925   0.84322   0.10089  -0.30578
C          C       0.44563   0.92461   0.23487  -0.00239
C          C       0.40375   0.79230   0.05850   0.20762
C          C       0.96750   0.86171   0.92320   0.20323
C          C       0.52367   0.75477   0.70250  -0.29082
C          C       0.56751   0.67095   0.74938   0.20095
C          C       0.10601   0.76865   0.92104   0.00950
C          C       0.06492   0.70909   0.98988  -0.01894
C          C       0.40515   0.84069   0.26090   0.00708
C          C       0.90887   0.94001   0.88269  -0.30305
C          C       0.29174   0.89225   0.82477  -0.01319
C          C       0.90377   0.85212   0.72629   0.01233
C          C       0.37863   0.88403   0.83755   0.01170
C          C       0.78629   0.86400   0.85982  -0.05779
C          C       0.35299   0.81243   0.73492  -0.03629
C          C       0.56735   0.58155   0.74242  -0.03899
C          C       0.64182   0.60623   0.84376   0.02323
C          C       0.92655   0.80167   0.99291  -0.05675
C          C       0.63588   0.51735   0.83982  -0.02102
C          C       0.09953   0.12691   0.66564   0.21077
C          C       0.18819   0.18022   0.74621  -0.01044
C          C       0.12468   0.64614   0.34537   0.21033
C          C       0.19679   0.55950   0.75264   0.19175
C          C       0.28908   0.42917   0.50109   0.00231
C          C       0.15784   0.53051   0.50315  -0.04182
C          C       0.34007   0.49526   0.44111   0.01717
C          C       0.03739   0.60952   0.36952  -0.05260
C          C       0.15742   0.68105   0.39828  -0.30483
C          C       0.07450   0.55585   0.26445  -0.00796
C          C       0.20791   0.59632   0.44087   0.20597
C          C       0.13940   0.03251   0.57608   0.20374
C          C       0.24464   0.47719   0.79758  -0.29219
C          C       0.32847   0.43340   0.75075   0.20174
C          C       0.23175   0.89371   0.57918   0.00935
C          C       0.29214   0.93426   0.51058  -0.01848
C          C       0.15960   0.59417   0.23903   0.00690
C          C       0.06113   0.09163   0.61601  -0.30344
C          C       0.10743   0.70867   0.67454  -0.01181
C          C       0.14789   0.09623   0.77331   0.01322
C          C       0.11519   0.62170   0.66234   0.01303
C          C       0.13894   0.21282   0.63872  -0.05647
C          C       0.18720   0.64766   0.76472  -0.03651
C          C       0.41791   0.43207   0.75861  -0.03859
C          C       0.39319   0.35968   0.65620   0.02091
C          C       0.20023   0.07294   0.50661  -0.05717
C          C       0.48217   0.36389   0.66123  -0.01826
C          C       0.12685   0.09828   0.16676   0.21080
C          C       0.18121   0.18646   0.24700  -0.01017
C          C       0.64538   0.12443   0.84626   0.21029
C          C       0.55885   0.19758   0.25258   0.19005
C          C       0.42942   0.28961   0.00166   0.00433
C          C       0.52998   0.15800   0.00360  -0.04366
C          C       0.49599   0.34022   0.94184   0.01544
C          C       0.60669   0.03824   0.87098  -0.04659
C          C       0.68075   0.15678   0.89911  -0.30585
C          C       0.55437   0.07539   0.76512  -0.00241
C          C       0.59626   0.20770   0.94150   0.20772
C          C       0.03250   0.13829   0.07680   0.20314
C          C       0.47634   0.24523   0.29750  -0.29089
C          C       0.43249   0.32905   0.25062   0.20100
C          C       0.89400   0.23134   0.07896   0.00944
C          C       0.93508   0.29091   0.01012  -0.01897
C          C       0.59486   0.15931   0.73910   0.00685
C          C       0.09114   0.05999   0.11730  -0.30320
C          C       0.70827   0.10775   0.17523  -0.01323
C          C       0.09623   0.14788   0.27371   0.01229
C          C       0.62138   0.11597   0.16245   0.01172
C          C       0.21372   0.13600   0.14018  -0.05790
C          C       0.64701   0.18757   0.26508  -0.03636
C          C       0.43266   0.41845   0.25758  -0.03897
C          C       0.35819   0.39377   0.15623   0.02318
C          C       0.07346   0.19833   0.00708  -0.05663
C          C       0.36412   0.48265   0.16018  -0.02101
C          C       0.90048   0.87309   0.33435   0.21071
C          C       0.81181   0.81978   0.25379  -0.01049
C          C       0.87533   0.35386   0.65463   0.21030
C          C       0.80321   0.44050   0.24736   0.19164
C          C       0.71092   0.57083   0.49891   0.00209
C          C       0.84217   0.46949   0.49685  -0.04178
C          C       0.65993   0.50474   0.55889   0.01725
C          C       0.96261   0.39048   0.63048  -0.05250
C          C       0.84258   0.31895   0.60172  -0.30478
C          C       0.92550   0.44415   0.73555  -0.00797
C          C       0.79210   0.40368   0.55912   0.20603
C          C       0.86061   0.96749   0.42392   0.20351
C          C       0.75536   0.52281   0.20242  -0.29224
C          C       0.67153   0.56660   0.24925   0.20188
C          C       0.76825   0.10629   0.42082   0.00924
C          C       0.70786   0.06574   0.48942  -0.01853
C          C       0.84040   0.40583   0.76097   0.00706
C          C       0.93887   0.90837   0.38399  -0.30341
C          C       0.89257   0.29133   0.32546  -0.01170
C          C       0.85211   0.90377   0.22669   0.01320
C          C       0.88482   0.37830   0.33766   0.01298
C          C       0.86107   0.78718   0.36128  -0.05647
C          C       0.81280   0.35234   0.23528  -0.03651
C          C       0.58210   0.56793   0.24139  -0.03861
C          C       0.60682   0.64032   0.34380   0.02074
C          C       0.79977   0.92706   0.49339  -0.05691
C          C       0.51784   0.63611   0.33877  -0.01816
N          N       0.41928   0.69959   0.08940  -0.28418
N          N       0.05935   0.84684   0.88609  -0.25827
N          N       0.55406   0.80255   0.96482  -0.20850
N          N       0.35918   0.81393   0.22081  -0.25474
N          N       0.43965   0.98805   0.16832  -0.20970
N          N       0.75641   0.82129   0.81975  -0.17894
N          N       0.93226   0.89850   0.76498  -0.27081
N          N       0.60718   0.68417   0.79965  -0.25016
N          N       0.45528   0.83902   0.79955  -0.23125
N          N       0.59989   0.50378   0.78759  -0.19601
N          N       0.27682   0.85636   0.77298  -0.21831
N          N       0.97363   0.72462   0.02800  -0.14184
N          N       0.30064   0.58011   0.40984  -0.28413
N          N       0.15347   0.94080   0.61351  -0.25820
N          N       0.19693   0.44631   0.53473  -0.20840
N          N       0.18691   0.64003   0.27889  -0.25316
N          N       0.01030   0.56378   0.33021  -0.20189
N          N       0.18203   0.24209   0.67885  -0.18203
N          N       0.10142   0.06829   0.73435  -0.27247
N          N       0.31509   0.39490   0.69983  -0.24948
N          N       0.16005   0.54531   0.70064  -0.23285
N          N       0.49582   0.39887   0.71397  -0.19801
N          N       0.14357   0.72365   0.72619  -0.21664
N          N       0.27733   0.02539   0.47209  -0.14162
N          N       0.58072   0.30041   0.91060  -0.28403
N          N       0.94065   0.15316   0.11391  -0.25826
N          N       0.44595   0.19745   0.03517  -0.20875
N          N       0.64082   0.18607   0.77918  -0.25449
N          N       0.56036   0.01195   0.83168  -0.20980
N          N       0.24360   0.17871   0.18025  -0.17869
N          N       0.06774   0.10150   0.23502  -0.27092
N          N       0.39283   0.31583   0.20034  -0.25015
N          N       0.54473   0.16098   0.20045  -0.23137
N          N       0.40011   0.49622   0.21241  -0.19606
N          N       0.72319   0.14364   0.22702  -0.21810
N          N       0.02637   0.27538   0.97200  -0.14176
N          N       0.69936   0.41989   0.59015  -0.28435
N          N       0.84653   0.05920   0.38649  -0.25791
N          N       0.80308   0.55369   0.46527  -0.20819
N          N       0.81310   0.35997   0.72111  -0.25341
N          N       0.98970   0.43622   0.66979  -0.20177
N          N       0.81797   0.75791   0.32115  -0.18216
N          N       0.89858   0.93171   0.26565  -0.27228
N          N       0.68492   0.60510   0.30017  -0.24921
N          N       0.83996   0.45469   0.29936  -0.23286
N          N       0.50418   0.60113   0.28603  -0.19820
N          N       0.85644   0.27635   0.27381  -0.21659
N          N       0.72268   0.97461   0.52791  -0.14177
