data_block_1
_audit_creation_date         'Sun Jul 12 23:18:18 2020'
_audit_creation_method       'generated by GDIS v0.91'


_cell_length_a             30.0990
_cell_length_b             13.5950
_cell_length_c             16.1270
_cell_angle_alpha          88.45
_cell_angle_beta           90.03
_cell_angle_gamma          90.30


_symmetry_space_group_name_H-M   'P 1'
_symmetry_Int_Tables_number       1


loop_
_atom_site_label
_atom_site_fract_x
_atom_site_fract_y
_atom_site_fract_z
Ti    0.2544    0.1319    0.0016
 O    0.2757    0.2499    0.0001
 C    0.1974    0.2403    0.1223
 O    0.2133    0.1583    0.0998
 C    0.0217    0.2485    0.3481
 H    0.0394    0.2448    0.2893
 C    0.0237    0.2480    0.5008
 C    0.0940    0.2422    0.4239
 C    0.0470    0.2472    0.4234
 C    0.1167    0.2380    0.4996
 H    0.1530    0.2348    0.4990
 C    0.1694    0.1568    0.2527
 C    0.1447    0.1579    0.3256
 C    0.1214    0.3247    0.2924
 C    0.1470    0.3248    0.2205
Ti    0.7453    0.3637    0.9990
 O    0.7243    0.2457    0.9964
 C    0.8004    0.2473    0.1264
 O    0.7916    0.3281    0.0876
 C    0.9764    0.2531    0.3488
 H    0.9580    0.2533    0.2906
 C    0.9762    0.2528    0.5015
 C    0.9051    0.2609    0.4267
 C    0.9521    0.2567    0.4249
 C    0.8831    0.2610    0.5030
 H    0.8469    0.2633    0.5037
Ti    0.7550    0.1140    0.0022
 C    0.8053    0.2558    0.8834
 O    0.8019    0.1745    0.9251
 C    0.9782    0.2520    0.6542
 H    0.9606    0.2555    0.7130
 C    0.9059    0.2565    0.5786
 C    0.9530    0.2529    0.5789
 C    0.8310    0.2552    0.8049
 C    0.8801    0.2557    0.6569
 O    0.7889    0.1617    0.1035
 C    0.8267    0.2526    0.2042
 C    0.8297    0.1697    0.2575
 C    0.8547    0.1738    0.3299
 C    0.8782    0.2598    0.3495
 C    0.8752    0.3425    0.2956
 C    0.8492    0.3396    0.2242
Ti    0.2455    0.3826    0.9992
 C    0.1973    0.2487    0.8789
 O    0.2084    0.3338    0.9036
 C    0.0235    0.2480    0.6535
 H    0.0419    0.2480    0.7117
 C    0.0947    0.2393    0.5757
 C    0.0478    0.2441    0.5774
 C    0.1713    0.2449    0.8005
 C    0.1678    0.3294    0.7492
 C    0.1435    0.3264    0.6759
 C    0.1213    0.2398    0.6535
 C    0.1248    0.1556    0.7055
 C    0.1501    0.1575    0.7778
 O    0.2021    0.3227    0.0831
 C    0.1708    0.2404    0.1999
 C    0.1201    0.2415    0.3460
 O    0.2062    0.1674    0.9165
 O    0.7888    0.3375    0.9046
 C    0.8311    0.3386    0.7517
 C    0.8550    0.3383    0.6779
 C    0.8798    0.1725    0.7105
 C    0.8551    0.1716    0.7834
 O    0.7757    0.9960    0.0037
 C    0.6964    0.9958    0.1223
 O    0.7066    0.4077    0.0953
 C    0.5224    0.0025    0.3489
 H    0.5405    0.0023    0.2904
 C    0.5235    0.0038    0.5016
 C    0.5942    0.0113    0.4254
 C    0.5472    0.0070    0.4245
 C    0.6167    0.0128    0.5013
 H    0.6529    0.0151    0.5012
 C    0.6702    0.0008    0.2003
 C    0.6652    0.4143    0.2491
 C    0.6411    0.4191    0.3226
 C    0.6200    0.5066    0.3442
 C    0.6237    0.0918    0.2933
 C    0.6488    0.0882    0.2210
 O    0.2241    0.9991    0.0000
 C    0.3014    0.9890    0.1244
 O    0.2980    0.0705    0.0834
 C    0.4771    0.9979    0.3490
 H    0.4592    0.9938    0.2905
 C    0.4760    0.9985    0.5017
 C    0.4053    0.9916    0.4260
 C    0.4523    0.9970    0.4247
 C    0.3829    0.9870    0.5021
 H    0.3467    0.9834    0.5022
 C    0.3788    0.9909    0.3484
 C    0.3036    0.0021    0.8814
 O    0.2932    0.4221    0.9134
 C    0.4771    0.9998    0.6544
 H    0.4590    0.0000    0.7128
 C    0.4054    0.9891    0.5778
 C    0.4524    0.9949    0.5787
 O    0.2870    0.4102    0.0962
 C    0.3279    0.9898    0.2022
 C    0.3310    0.4101    0.2492
 C    0.3553    0.4126    0.3225
 C    0.3780    0.0739    0.2944
 C    0.3524    0.0739    0.2225
 C    0.6977    0.0072    0.8795
 O    0.7157    0.0878    0.9003
 C    0.5224    0.0048    0.6543
 H    0.5403    0.0091    0.7127
 C    0.5943    0.0093    0.5773
 C    0.5472    0.0051    0.5786
 C    0.6708    0.5063    0.7983
 C    0.6713    0.0912    0.7485
 C    0.6466    0.0911    0.6755
 C    0.6207    0.0089    0.6551
 C    0.6210    0.4238    0.7047
 C    0.6465    0.4224    0.7767
 O    0.7046    0.0766    0.0829
 O    0.7022    0.4222    0.9142
 O    0.2915    0.0870    0.9041
 C    0.3268    0.5013    0.7968
 C    0.3342    0.0818    0.7520
 C    0.3584    0.0778    0.6787
 C    0.3792    0.9902    0.6560
 C    0.3769    0.4163    0.7061
 C    0.3509    0.4169    0.7775
 H    0.3974    0.1389    0.3098
 H    0.3512    0.1383    0.1809
 H    0.3571    0.3475    0.3634
 H    0.3135    0.3436    0.2313
 H    0.1878    0.0916    0.2356
 H    0.1487    0.3895    0.1793
 H    0.1026    0.3899    0.3081
 H    0.1437    0.0931    0.3669
 H    0.1533    0.0923    0.8181
 H    0.1076    0.0882    0.6885
 H    0.1409    0.3919    0.6356
 H    0.1843    0.3969    0.7676
 H    0.3493    0.3530    0.8196
 H    0.3620    0.1434    0.6387
 H    0.3186    0.1498    0.7707
 H    0.3962    0.3514    0.6916
 H    0.6810    0.3463    0.2313
 H    0.6519    0.1523    0.1792
 H    0.6380    0.3543    0.3635
 H    0.6064    0.1594    0.3087
 H    0.6466    0.1560    0.6341
 H    0.6907    0.1554    0.7655
 H    0.6478    0.3571    0.8172
 H    0.6016    0.3591    0.6883
 H    0.8543    0.1070    0.8248
 H    0.8990    0.1080    0.6941
 H    0.8123    0.4031    0.7694
 H    0.8551    0.4031    0.6365
 H    0.8462    0.4038    0.1826
 H    0.8122    0.1025    0.2412
 H    0.8568    0.1096    0.3717
 H    0.8932    0.4095    0.3105
Ti    0.2525    0.6326    0.9987
 O    0.2754    0.7492    0.9995
 C    0.1963    0.7389    0.1208
 O    0.2132    0.6575    0.0999
 C    0.0214    0.7457    0.3472
 H    0.0392    0.7411    0.2887
 C    0.0229    0.7483    0.4998
 C    0.0935    0.7425    0.4235
 C    0.0465    0.7464    0.4227
 C    0.1160    0.7394    0.4994
 H    0.1522    0.7366    0.4993
 C    0.1688    0.6567    0.2521
 C    0.1444    0.6581    0.3253
 C    0.1207    0.8244    0.2914
 C    0.1459    0.8241    0.2191
Ti    0.7443    0.8636    0.0013
 O    0.7224    0.7462    0.0003
 C    0.8014    0.7431    0.1224
 O    0.7934    0.8240    0.0832
 C    0.9761    0.7494    0.3475
 H    0.9579    0.7479    0.2891
 C    0.9754    0.7526    0.5001
 C    0.9045    0.7582    0.4246
 C    0.9516    0.7545    0.4232
 C    0.8823    0.7598    0.5006
 H    0.8460    0.7618    0.5007
Ti    0.7534    0.6136    0.9996
 C    0.8015    0.7578    0.8792
 O    0.7981    0.6761    0.9204
 C    0.9769    0.7557    0.6527
 H    0.9592    0.7608    0.7112
 C    0.9048    0.7577    0.5765
 C    0.9519    0.7545    0.5772
 C    0.8279    0.7578    0.8012
 C    0.8786    0.7580    0.6545
 O    0.7890    0.6580    0.0998
 C    0.8278    0.7480    0.2002
 C    0.8303    0.6654    0.2540
 C    0.8547    0.6699    0.3270
 C    0.8781    0.7559    0.3467
 C    0.8758    0.8381    0.2921
 C    0.8504    0.8348    0.2201
Ti    0.2454    0.8818    0.0008
 C    0.1956    0.7533    0.8792
 O    0.2090    0.8380    0.9006
 C    0.0223    0.7516    0.6524
 H    0.0405    0.7532    0.7107
 C    0.0938    0.7412    0.5754
 C    0.0468    0.7459    0.5767
 C    0.1697    0.7485    0.8008
 C    0.1680    0.8312    0.7470
 C    0.1439    0.8275    0.6735
 C    0.1201    0.7422    0.6534
 C    0.1219    0.6598    0.7077
 C    0.1469    0.6622    0.7803
 O    0.1999    0.8202    0.0793
 C    0.1699    0.7398    0.1987
 C    0.1196    0.7416    0.3455
 O    0.2022    0.6727    0.9202
 O    0.7844    0.8388    0.9005
 C    0.8288    0.8413    0.7481
 C    0.8535    0.8408    0.6751
 C    0.8777    0.6750    0.7084
 C    0.8523    0.6742    0.7804
 O    0.7755    0.4968    1.0000
 C    0.6952    0.4928    0.1187
 O    0.7085    0.9106    0.0999
 C    0.5221    0.5033    0.3454
 H    0.5402    0.5018    0.2871
 C    0.5230    0.5056    0.4982
 C    0.5938    0.5093    0.4223
 C    0.5468    0.5070    0.4212
 C    0.6163    0.5102    0.4981
 H    0.6525    0.5112    0.4981
 C    0.6693    0.4980    0.1969
 C    0.6669    0.9179    0.2536
 C    0.6427    0.9226    0.3268
 C    0.6204    0.0093    0.3473
 C    0.6241    0.5900    0.2913
 C    0.6490    0.5863    0.2188
 O    0.2227    0.4989    0.9999
 C    0.3026    0.4926    0.1188
 O    0.2980    0.5743    0.0788
 C    0.4767    0.5010    0.3454
 H    0.4587    0.4976    0.2869
 C    0.4755    0.5029    0.4981
 C    0.4048    0.4996    0.4221
 C    0.4519    0.5021    0.4210
 C    0.3824    0.4978    0.4979
 H    0.3461    0.4959    0.4978
 C    0.3787    0.4980    0.3440
 C    0.3002    0.5038    0.8744
 O    0.2955    0.9211    0.9208
 C    0.4765    0.5053    0.6507
 H    0.4584    0.5073    0.7092
 C    0.4047    0.4983    0.5738
 C    0.4518    0.5012    0.5751
 O    0.2844    0.9073    0.1033
 C    0.3288    0.4942    0.1969
 C    0.3287    0.9065    0.2555
 C    0.3535    0.9077    0.3283
 C    0.3764    0.5817    0.2912
 C    0.3513    0.5804    0.2188
 C    0.6974    0.5053    0.8761
 O    0.7133    0.5871    0.8998
 C    0.5219    0.5077    0.6508
 H    0.5399    0.5115    0.7093
 C    0.5938    0.5083    0.5741
 C    0.5468    0.5063    0.5752
 C    0.6713    0.0077    0.8016
 C    0.6698    0.5907    0.7465
 C    0.6452    0.5909    0.6734
 C    0.6201    0.5078    0.6520
 C    0.6207    0.9258    0.7090
 C    0.6462    0.9246    0.7810
 O    0.7040    0.5738    0.0799
 O    0.7000    0.9257    0.9210
 O    0.2868    0.5879    0.8969
 C    0.3295    0.9973    0.8031
 C    0.3282    0.5840    0.7429
 C    0.3531    0.5820    0.6704
 C    0.3782    0.4986    0.6514
 C    0.3745    0.9060    0.7077
 C    0.3494    0.9090    0.7802
 H    0.3943    0.6483    0.3078
 H    0.3489    0.6453    0.1779
 H    0.3541    0.8430    0.3698
 H    0.3098    0.8415    0.2387
 H    0.1873    0.5915    0.2352
 H    0.1474    0.8885    0.1775
 H    0.1018    0.8895    0.3069
 H    0.1436    0.5935    0.3669
 H    0.1488    0.5983    0.8224
 H    0.1035    0.5933    0.6923
 H    0.1427    0.8916    0.6315
 H    0.1857    0.8978    0.7638
 H    0.3452    0.8438    0.8203
 H    0.3539    0.6460    0.6281
 H    0.3095    0.6492    0.7589
 H    0.3905    0.8377    0.6904
 H    0.6836    0.8504    0.2367
 H    0.6529    0.6509    0.1778
 H    0.6403    0.8584    0.3686
 H    0.6077    0.6582    0.3078
 H    0.6445    0.6564    0.6329
 H    0.6885    0.6556    0.7644
 H    0.6468    0.8601    0.8225
 H    0.6009    0.8616    0.6933
 H    0.8511    0.6095    0.8218
 H    0.8970    0.6103    0.6927
 H    0.8101    0.9061    0.7650
 H    0.8541    0.9057    0.6338
 H    0.8479    0.8986    0.1780
 H    0.8128    0.5983    0.2376
 H    0.8564    0.6060    0.3692
 H    0.8940    0.9050    0.3070
